data_image0
_chemical_formula_structural       Ca1620CO3CO3CO3CO3CO3CO3CO3CO3CO3CO3CO3CO3CO3CO3CO3CO3CO3CO3CO3CO3CO3CO3CO3CO3CO3CO3CO3CO3CO3CO3CO3CO3CO3CO3CO3CO3CO3CO3CO3CO3CO3CO3CO3CO3CO3CO3CO3CO3CO3CO3CO3CO3CO3CO3CO3CO3CO3CO3CO3CO3CO3CO3CO3CO3CO3CO3CO3CO3CO3CO3CO3CO3CO3CO3CO3CO3CO3CO3CO3CO3CO3CO3CO3CO3CO3CO3CO3CO3CO3CO3CO3CO3CO3CO3CO3CO3CO3CO3CO3CO3CO3CO3CO3CO3CO3CO3CO3CO3CO3CO3CO3CO3CO3CO3CO3CO3CO3CO3CO3CO3CO3CO3CO3CO3CO3CO3CO3CO3CO3CO3CO3CO3CO3CO3CO3CO3CO3CO3CO3CO3CO3CO3CO3CO3CO3CO3CO3CO3CO3CO3CO3CO3CO3CO3CO3CO3CO3CO3CO3CO3CO3CO3CO3CO3CO3CO3CO3CO3CO3CO3CO3CO3CO3CO3CO3CO3CO3CO3CO3CO3CO3CO3CO3CO3CO3CO3CO3CO3CO3CO3CO3CO3CO3CO3CO3CO3CO3CO3CO3CO3CO3CO3CO3CO3CO3CO3CO3CO3CO3CO3CO3CO3CO3CO3CO3CO3CO3CO3CO3CO3CO3CO3CO3CO3CO3CO3CO3CO3CO3CO3CO3CO3CO3CO3CO3CO3CO3CO3CO3CO3CO3CO3CO3CO3CO3CO3CO3CO3CO3CO3CO3CO3CO3CO3CO3CO3CO3CO3CO3CO3CO3CO3CO3CO3CO3CO3CO3CO3CO3CO3CO3CO3CO3CO3CO3CO3CO3CO3CO3CO3CO3CO3CO3CO3CO3CO3CO3CO3CO3CO3CO3CO3CO3CO3CO3CO3CO3CO3CO3CO3CO3CO3CO3CO3CO3CO3CO3CO3CO3CO3CO3CO3CO3CO3CO3CO3CO3CO3CO3CO3CO3CO3CO3CO3CO3CO3CO3CO3CO3CO3CO3CO3CO3CO3CO3CO3CO3CO3CO3CO3CO3CO3CO3CO3CO3CO3CO3CO3CO3CO3CO3CO3CO3CO3CO3CO3CO3CO3CO3CO3CO3CO3CO3CO3CO3CO3CO3CO3CO3CO3CO3CO3CO3CO3CO3CO3CO3CO3CO3CO3CO3CO3CO3CO3CO3CO3CO3CO3CO3CO3CO3CO3CO3CO3CO3CO3CO3CO3CO3CO3CO3CO3CO3CO3CO3CO3CO3CO3CO3CO3CO3CO3CO3CO3CO3CO3CO3CO3CO3CO3CO3CO3CO3CO3CO3CO3CO3CO3CO3CO3CO3CO3CO3CO3CO3CO3CO3CO3CO3CO3CO3CO3CO3CO3CO3CO3CO3CO3CO3CO3CO3CO3CO3CO3CO3CO3CO3CO3CO3CO3CO3CO3CO3CO3CO3CO3CO3CO3CO3CO3CO3CO3CO3CO3CO3CO3CO3CO3CO3CO3CO3CO3CO3CO3CO3CO3CO3CO3CO3CO3CO3CO3CO3CO3CO3CO3CO3CO3CO3CO3CO3CO3CO3CO3CO3CO3CO3CO3CO3CO3CO3CO3CO3CO3CO3CO3CO3CO3CO3CO3CO3CO3CO3CO3CO3CO3CO3CO3CO3CO3CO3CO3CO3CO3CO3CO3CO3CO3CO3CO3CO3CO3CO3CO3CO3CO3CO3CO3CO3CO3CO3CO3CO3CO3CO3CO3CO3CO3CO3CO3CO3CO3CO3CO3CO3CO3CO3CO3CO3CO3CO3CO3CO3CO3CO3CO3CO3CO3CO3CO3CO3CO3CO3CO3CO3CO3CO3CO3CO3CO3CO3CO3CO3CO3CO3CO3CO3CO3CO3CO3CO3CO3CO3CO3CO3CO3CO3CO3CO3CO3CO3CO3CO3CO3CO3CO3CO3CO3CO3CO3CO3CO3CO3CO3CO3CO3CO3CO3CO3CO3CO3CO3CO3CO3CO3CO3CO3CO3CO3CO3CO3CO3CO3CO3CO3CO3CO3CO3CO3CO3CO3CO3CO3CO3CO3CO3CO3CO3CO3CO3CO3CO3CO3CO3CO3CO3CO3CO3CO3CO3CO3CO3CO3CO3CO3CO3CO3CO3CO3CO3CO3CO3CO3CO3CO3CO3CO3CO3CO3CO3CO3CO3CO3CO3CO3CO3CO3CO3CO3CO3CO3CO3CO3CO3CO3CO3CO3CO3CO3CO3CO3CO3CO3CO3CO3CO3CO3CO3CO3CO3CO3CO3CO3CO3CO3CO3CO3CO3CO3CO3CO3CO3CO3CO3CO3CO3CO3CO3CO3CO3CO3CO3CO3CO3CO3CO3CO3CO3CO3CO3CO3CO3CO3CO3CO3CO3CO3CO3CO3CO3CO3CO3CO3CO3CO3CO3CO3CO3CO3CO3CO3CO3CO3CO3CO3CO3CO3CO3CO3CO3CO3CO3CO3CO3CO3CO3CO3CO3CO3CO3CO3CO3CO3CO3CO3CO3CO3CO3CO3CO3CO3CO3CO3CO3CO3CO3CO3CO3CO3CO3CO3CO3CO3CO3CO3CO3CO3CO3CO3CO3CO3CO3CO3CO3CO3CO3CO3CO3CO3CO3CO3CO3CO3CO3CO3CO3CO3CO3CO3CO3CO3CO3CO3CO3CO3CO3CO3CO3CO3CO3CO3CO3CO3CO3CO3CO3CO3CO3CO3CO3CO3CO3CO3CO3CO3CO3CO3CO3CO3CO3CO3CO3CO3CO3CO3CO3CO3CO3CO3CO3CO3CO3CO3CO3CO3CO3CO3CO3CO3CO3CO3CO3CO3CO3CO3CO3CO3CO3CO3CO3CO3CO3CO3CO3CO3CO3CO3CO3CO3CO3CO3CO3CO3CO3CO3CO3CO3CO3CO3CO3CO3CO3CO3CO3CO3CO3CO3CO3CO3CO3CO3CO3CO3CO3CO3CO3CO3CO3CO3CO3CO3CO3CO3CO3CO3CO3CO3CO3CO3CO3CO3CO3CO3CO3CO3CO3CO3CO3CO3CO3CO3CO3CO3CO3CO3CO3CO3CO3CO3CO3CO3CO3CO3CO3CO3CO3CO3CO3CO3CO3CO3CO3CO3CO3CO3CO3CO3CO3CO3CO3CO3CO3CO3CO3CO3CO3CO3CO3CO3CO3CO3CO3CO3CO3CO3CO3CO3CO3CO3CO3CO3CO3CO3CO3CO3CO3CO3CO3CO3CO3CO3CO3CO3CO3CO3CO3CO3CO3CO3CO3CO3CO3CO3CO3CO3CO3CO3CO3CO3CO3CO3CO3CO3CO3CO3CO3CO3CO3CO3CO3CO3CO3CO3CO3CO3CO3CO3CO3CO3CO3CO3CO3CO3CO3CO3CO3CO3CO3CO3CO3CO3CO3CO3CO3CO3CO3CO3CO3CO3CO3CO3CO3CO3CO3CO3CO3CO3CO3CO3CO3CO3CO3CO3CO3CO3CO3CO3CO3CO3CO3CO3CO3CO3CO3CO3CO3CO3CO3CO3CO3CO3CO3CO3CO3CO3CO3CO3CO3CO3CO3CO3CO3CO3CO3CO3CO3CO3CO3CO3CO3CO3CO3CO3CO3CO3CO3CO3CO3CO3CO3CO3CO3CO3CO3CO3CO3CO3CO3CO3CO3CO3CO3CO3CO3CO3CO3CO3CO3CO3CO3CO3CO3CO3CO3CO3CO3CO3CO3CO3CO3CO3CO3CO3CO3CO3CO3CO3CO3CO3CO3CO3CO3CO3CO3CO3CO3CO3CO3CO3CO3CO3CO3CO3CO3CO3CO3CO3CO3CO3CO3CO3CO3CO3CO3CO3CO3CO3CO3CO3CO3CO3CO3CO3CO3CO3CO3CO3CO3CO3CO3CO3CO3CO3CO3CO3CO3CO3CO3CO3CO3CO3CO3CO3CO3CO3CO3CO3CO3CO3CO3CO3CO3CO3CO3CO3CO3CO3CO3CO3CO3CO3CO3CO3CO3CO3CO3CO3CO3CO3CO3CO3CO3CO3CO3CO3CO3CO3CO3CO3CO3CO3CO3CO3CO3CO3CO3CO3CO3CO3CO3CO3CO3CO3CO3CO3CO3CO3CO3CO3CO3CO3CO3CO3CO3CO3CO3CO3CO3CO3CO3CO3CO3CO3CO3CO3CO3CO3CO3CO3CO3CO3CO3CO3CO3CO3CO3CO3CO3CO3CO3CO3CO3CO3CO3CO3CO3CO3CO3CO3CO3CO3CO3CO3CO3CO3CO3CO3CO3CO3CO3CO3CO3CO3CO3CO3CO3CO3CO3CO3CO3CO3CO3CO3CO3CO3CO3CO3CO3CO3CO3CO3CO3CO3CO3CO3CO3CO3CO3CO3CO3CO3CO3CO3CO3CO3CO3CO3CO3CO3CO3CO3CO3CO3CO3CO3CO3CO3CO3CO3CO3CO3CO3CO3CO3CO3CO3CO3CO3CO3CO3CO3CO3CO3CO3CO3CO3CO3CO3CO3CO3CO3CO3CO3CO3CO3CO3CO3CO3CO3CO3CO3CO3CO3CO3CO3CO3CO3CO3CO3CO3CO3CO3CO3CO3CO3CO3CO3CO3CO3CO3CO3CO3CO3CO3CO3CO3CO3CO3CO3CO3CO3CO3CO3CO3CO3CO3CO3CO3CO3CO3CO3CO3CO3CO3CO3CO3CO3CO3CO3CO3CO3CO3CO3CO3CO3CO3CO3CO3CO3CO3CO3CO3CO3CO3CO3CO3CO3CO3CO3CO3CO3CO3CO3CO3CO3CO3CO3CO3CO3CO3CO3CO3CO3CO3CO3CO3CO3CO3CO3CO3CO3CO3CO3CO3CO3CO3CO3CO3CO3CO3CO3CO3CO3CO3CO3CO3CO3CO3CO3CO3CO3CO3CO3CO3CO3CO3CO3CO3CO3CO3CO3CO3CO3CO3CO3CO3CO3CO3CO3CO3CO3CO3CO3CO3CO3CO3CO3CO3CO3CO3CO3CO3CO3CO3CO3CO3CO3CO3CO3CO3CO3CO3CO3CO3CO3CO3CO3CO3CO3CO3CO3CO3CO3CO3CO3CO3CO3CO3CO3CO3CO3CO3CO3CO3CO3CO3CO3CO3CO3CO3CO3CO3CO3CO3CO3CO3CO3CO3CO3CO3CO3CO3CO3CO3CO3CO3CO3CO3CO3CO4H2OH2OH2OH2OH2OH2OH2OH2OH2OH2OH2OH2OH2OH2OH2OH2OH2OH2OH2OH2OH2OH2OH2OH2OH2OH2OH2OH2OH2OH2OH2OH2OH2OH2OH2OH2OH2OH2OH2OH2OH2OH2OH2OH2OH2OH2OH2OH2OH2OH2OH2OH2OH2OH2OH2OH2OH2OH2OH2OH2OH2OH2OH2OH2OH2OH2OH2OH2OH2OH2OH2OH2OH2OH2OH2OH2OH2OH2OH2OH2OH2OH2OH2OH2OH2OH2OH2OH2OH2OH2OH2OH2OH2OH2OH2OH2OH2OH2OH2OH2OH2OH2OH2OH2OH2OH2OH2OH2OH2OH2OH2OH2OH2OH2OH2OH2OH2OH2OH2OH2OH2OH2OH2OH2OH2OH2OH2OH2OH2OH2OH2OH2OH2OH2OH2OH2OH2OH2OH2OH2OH2OH2OH2OH2OH2OH2OH2OH2OH2OH2OH2OH2OH2OH2OH2OH2OH2OH2OH2OH2OH2OH2OH2OH2OH2OH2OH2OH2OH2OH2OH2OH2OH2OH2OH2OH2OH2OH2OH2OH2OH2OH2OH2OH2OH2OH2OH2OH2OH2OH2OH2OH2OH2OH2OH2OH2OH2OH2OH2OH2OH2OH2OH2OH2OH2OH2OH2OH2OH2OH2OH2OH2OH2OH2OH2OH2OH2OH2OH2OH2OH2OH2OH2OH2OH2OH2OH2OH2OH2OH2OH2OH2OH2OH2OH2OH2OH2OH2OH2OH2OH2OH2OH2OH2OH2OH2OH2OH2OH2OH2OH2OH2OH2OH2OH2OH2OH2OH2OH2OH2OH2OH2OH2OH2OH2OH2OH2OH2OH2OH2OH2OH2OH2OH2OH2OH2OH2OH2OH2OH2OH2OH2OH2OH2OH2OH2OH2OH2OH2OH2OH2OH2OH2OH2OH2OH2OH2OH2OH2OH2OH2OH2OH2OH2OH2OH2OH2OH2OH2OH2OH2OH2OH2OH2OH2OH2OH2OH2OH2OH2OH2OH2OH2OH2OH2OH2OH2OH2OH2OH2OH2OH2OH2OH2OH2OH2OH2OH2OH2OH2OH2OH2OH2OH2OH2OH2OH2OH2OH2OH2OH2OH2OH2OH2OH2OH2OH2OH2OH2OH2OH2OH2OH2OH2OH2OH2OH2OH2OH2OH2OH2OH2OH2OH2OH2OH2OH2OH2OH2OH2OH2OH2OH2OH2OH2OH2OH2OH2OH2OH2OH2OH2OH2OH2OH2OH2OH2OH2OH2OH2OH2OH2OH2OH2OH2OH2OH2OH2OH2OH2OH2OH2OH2OH2OH2OH2OH2OH2OH2OH2OH2OH2OH2OH2OH2OH2OH2OH2OH2OH2OH2OH2OH2OH2OH2OH2OH2OH2OH2OH2OH2OH2OH2OH2OH2OH2OH2OH2OH2OH2OH2OH2OH2OH2OH2OH2OH2OH2OH2OH2OH2OH2OH2OH2OH2OH2OH2OH2OH2OH2OH2OH2OH2OH2OH2OH2OH2OH2OH2OH2OH2OH2OH2OH2OH2OH2OH2OH2OH2OH2OH2OH2OH2OH2OH2OH2OH2OH2OH2OH2OH2OH2OH2OH2OH2OH2OH2OH2OH2OH2OH2OH2OH2OH2OH2OH2OH2OH2OH2OH2OH2OH2OH2OH2OH2OH2OH2OH2OH2OH2OH2OH2OH2OH2OH2OH2OH2OH2OH2OH2OH2OH2OH2OH2OH2OH2OH2OH2OH2OH2OH2OH2OH2OH2OH2OH2OH2OH2OH2OH2OH2OH2OH2OH2OH2OH2OH2OH2OH2OH2OH2OH2OH2OH2OH2OH2OH2OH2OH2OH2OH2OH2OH2OH2OH2OH2OH2OH2OH2OH2OH2OH2OH2OH2OH2OH2OH2OH2OH2OH2OH2OH2OH2OH2OH2OH2OH2OH2OH2OH2OH2OH2OH2OH2OH2OH2OH2OH2OH2OH2OH2OH2OH2OH2OH2OH2OH2OH2OH2OH2OH2OH2OH2OH2OH2OH2OH2OH2OH2OH2OH2OH2OH2OH2OH2OH2OH2OH2OH2OH2OH2OH2OH2OH2OH2OH2OH2OH2OH2OH2OH2OH2OH2OH2OH2OH2OH2OH2OH2OH2OH2OH2OH2OH2OH2OH2OH2OH2OH2OH2OH2OH2OH2OH2OH2OH2OH2OH2OH2OH2OH2OH2OH2OH2OH2OH2OH2OH2OH2OH2OH2OH2OH2OH2OH2OH2OH2OH2OH2OH2OH2OH2OH2OH2OH2OH2OH2OH2OH2OH2OH2OH2OH2OH2OH2OH2OH2OH2OH2OH2OH2OH2OH2OH2OH2OH2OH2OH2OH2OH2OH2OH2OH2OH2OH2OH2OH2OH2OH2OH2OH2OH2OH2OH2OH2OH2OH2OH2OH2OH2OH2OH2OH2OH2OH2OH2OH2OH2OH2OH2OH2OH2OH2OH2OH2OH2OH2OH2OH2OH2OH2OH2OH2OH2OH2OH2OH2OH2OH2OH2OH2OH2OH2OH2OH2OH2OH2OH2OH2OH2OH2OH2OH2OH2OH2OH2OH2OH2OH2OH2OH2OH2OH2OH2OH2OH2OH2OH2OH2OH2OH2OH2OH2OH2OH2OH2OH2OH2OH2OH2OH2OH2OH2OH2OH2OH2OH2OH2OH2OH2OH2OH2OH2OH2OH2OH2OH2OH2OH2OH2OH2OH2OH2OH2OH2OH2OH2OH2OH2OH2OH2OH2OH2OH2OH2OH2OH2OH2OH2OH2OH2OH2OH2OH2OH2OH2OH2OH2OH2OH2OH2OH2OH2OH2OH2OH2OH2OH2OH2OH2OH2OH2OH2OH2OH2OH2OH2OH2OH2OH2OH2OH2OH2OH2OH2OH2OH2OH2OH2OH2OH2OH2OH2OH2OH2OH2OH2OH2OH2OH2OH2OH2OH2OH2OH2OH2OH2OH2OH2OH2OH2OH2OH2OH2OH2OH2OH2OH2OH2OH2OH2OH2OH2OH2OH2OH2OH2OH2OH2OH2OH2OH2OH2OH2OH2OH2OH2OH2OH2OH2OH2OH2OH2OH2OH2OH2OH2OH2OH2OH2OH2OH2OH2OH2OH2OH2OH2OH2OH2OH2OH2OH2OH2OH2OH2OH2OH2OH2OH2OH2OH2OH2OH2OH2OH2OH2OH2OH2OH2OH2OH2OH2OH2OH2OH2OH2OH2OH2OH2OH2OH2OH2OH2OH2OH2OH2OH2OH2OH2OH2OH2OH2OH2OH2OH2OH2OH2OH2OH2OH2OH2OH2OH2OH2OH2OH2OH2OH2OH2OH2OH2OH2OH2OH2OH2OH2OH2OH2OH2OH2OH2OH2OH2OH2OH2OH2OH2OH2OH2OH2OH2OH2OH2OH2OH2OH2OH2OH2OH2OH2OH2OH2OH2OH2OH2OH2OH2OH2OH2OH2OH2OH2OH2OH2OH2OH2OH2OH2OH2OH2OH2OH2OH2OH2OH2OH2OH2OH2OH2OH2OH2OH2OH2OH2OH2OH2OH2OH2OH2OH2OH2OH2OH2OH2OH2OH2OH2OH2OH2OH2OH2OH2OH2OH2OH2OH2OH2OH2OH2OH2OH2OH2OH2OH2OH2OH2OH2OH2OH2OH2OH2OH2OH2OH2OH2OH2OH2OH2OH2OH2OH2OH2OH2OH2OH2OH2OH2OH2OH2OH2OH2OH2OH2OH2OH2OH2OH2OH2OH2OH2OH2OH2OH2OH2OH2OH2OH2OH2OH2OH2OH2OH2OH2OH2OH2OH2OH2OH2OH2OH2OH2OH2OH2OH2OH2OH2OH2OH2OH2OH2OH2OH2OH2OH2OH2OH2OH2OH2OH2OH2OH2OH2OH2OH2OH2OH2OH2OH2OH2OH2OH2OH2OH2OH2OH2OH2OH2OH2OH2OH2OH2OH2OH2OH2OH2OH2OH2OH2OH2OH2OH2OH2OH2OH2OH2OH2OH2OH2OH2OH2OH2OH2OH2OH2OH2OH2OH2OH2OH2OH2OH2OH2OH2OH2OH2OH2OH2OH2OH2OH2OH2OH2OH2OH2OH2OH2OH2OH2OH2OH2OH2OH2OH2OH2OH2OH2OH2OH2OH2OH2OH2OH2OH2OH2OH2OH2OH2OH2OH2OH2OH2OH2OH2OH2OH2OH2OH2OH2OH2OH2OH2OH2OH2OH2OH2OH2OH2OH2OH2OH2OH2OH2OH2OH2OH2OH2OH2OH2OH2OH2OH2OH2OH2OH2OH2OH2OH2OH2OH2OH2OH2OH2OH2OH2OH2OH2OH2OH2OH2OH2OH2OH2OH2OH2OH2OH2OH2OH2OH2OH2OH2OH2OH2OH2OH2OH2OH2OH2OH2OH2OH2OH2OH2OH2OH2OH2OH2OH2OH2OH2OH2OH2OH2OH2OH2OH2OH2OH2OH2OH2OH2OH2OH2OH2OH2OH2OH2OH2OH2OH2OH2OH2OH2OH2OH2OH2OH2OH2OH2OH2OH2OH2OH2OH2OH2OH2OH2OH2OH2OH2OH2OH2OH2OH2OH2OH2OH2OH2OH2OH2OH2OH2OH2OH2OH2OH2OH2OH2OH2OH2OH2OH2OH2OH2OH2OH2OH2OH2OH2OH2OH2OH2OH2OH2OH2OH2OH2OH2OH2OH2OH2OH2OH2OH2OH2OH2OH2OH2OH2OH2OH2OH2OH2OH2OH2OH2OH2OH2OH2OH2OH2OH2OH2OH2OH2OH2OH2OH2OH2OH2OH2OH2OH2OH2OH2OH2OH2OH2OH2OH2OH2OH2OH2OH2OH2OH2OH2OH2OH2OH2OH2OH2OH2OH2OH2OH2OH2OH2OH2OH2OH2OH2OH2OH2OH2OH2OH2OH2OH2OH2OH2OH2OH2OH2OH2OH2OH2OH2OH2OH2OH2OH2OH2OH2OH2OH2OH2OH2OH2OH2OH2OH2OH2OH2OH2OH2OH2OH2OH2OH2OH2OH2OH2OH2OH2OH2OH2OH2OH2OH2OH2OH2OH2OH2OH2OH2OH2OH2OH2OH2OH2OH2OH2OH2OH2OH2OH2OH2OH2OH2OH2OH2OH2OH2OH2OH2OH2OH2OH2OH2OH2OH2OH2OH2OH2OH2OH2OH2OH2OH2OH2OH2OH2OH2OH2OH2OH2OH2OH2OH2
_chemical_formula_sum              "Ca1620 C1620 O6480 H3240"
_cell_length_a       52.768
_cell_length_b       54.8381
_cell_length_c       45.2676
_cell_angle_alpha    90
_cell_angle_beta     90
_cell_angle_gamma    90

_space_group_name_H-M_alt    "P 1"
_space_group_IT_number       1

loop_
  _space_group_symop_operation_xyz
  'x, y, z'

loop_
  _atom_site_type_symbol
  _atom_site_label
  _atom_site_symmetry_multiplicity
  _atom_site_fract_x
  _atom_site_fract_y
  _atom_site_fract_z
  _atom_site_occupancy
  Ca  Ca1       1.0  0.72186  0.20389  0.41904  1.0000
  Ca  Ca2       1.0  0.93203  0.33104  0.44275  1.0000
  Ca  Ca3       1.0  0.91314  0.31858  0.56941  1.0000
  Ca  Ca4       1.0  0.90082  0.26768  0.50376  1.0000
  Ca  Ca5       1.0  0.06460  0.66181  0.34908  1.0000
  Ca  Ca6       1.0  0.67695  0.30900  0.79652  1.0000
  Ca  Ca7       1.0  0.08199  0.20435  0.89665  1.0000
  Ca  Ca8       1.0  0.49650  0.87993  0.42838  1.0000
  Ca  Ca9       1.0  0.52750  0.93515  0.49461  1.0000
  Ca  Ca10      1.0  0.42656  0.95626  0.53680  1.0000
  Ca  Ca11      1.0  0.33605  0.91670  0.18136  1.0000
  Ca  Ca12      1.0  0.13828  0.26323  0.18255  1.0000
  Ca  Ca13      1.0  0.32477  0.51966  0.77554  1.0000
  Ca  Ca14      1.0  0.95272  0.73909  0.11824  1.0000
  Ca  Ca15      1.0  0.97170  0.79688  0.06300  1.0000
  Ca  Ca16      1.0  0.91047  0.77657  0.05820  1.0000
  Ca  Ca17      1.0  0.86630  0.80325  0.10076  1.0000
  Ca  Ca18      1.0  0.51644  0.45937  0.48579  1.0000
  Ca  Ca19      1.0  0.04593  0.52723  0.39615  1.0000
  Ca  Ca20      1.0  0.95287  0.85597  0.12901  1.0000
  Ca  Ca21      1.0  0.89996  0.68506  0.00804  1.0000
  Ca  Ca22      1.0  0.07640  0.38094  0.99729  1.0000
  Ca  Ca23      1.0  0.48175  0.14666  0.77644  1.0000
  Ca  Ca24      1.0  0.23332  0.77075  0.84270  1.0000
  Ca  Ca25      1.0  0.24132  0.67708  0.80705  1.0000
  Ca  Ca26      1.0  0.29903  0.66533  0.85915  1.0000
  Ca  Ca27      1.0  0.97486  0.08581  0.94181  1.0000
  Ca  Ca28      1.0  0.05101  0.70923  0.15300  1.0000
  Ca  Ca29      1.0  0.88189  0.09623  0.11658  1.0000
  Ca  Ca30      1.0  0.86436  0.13690  0.07182  1.0000
  Ca  Ca31      1.0  0.13357  0.03421  0.05746  1.0000
  Ca  Ca32      1.0  0.09819  0.09605  0.06336  1.0000
  Ca  Ca33      1.0  0.03513  0.09092  0.00301  1.0000
  Ca  Ca34      1.0  0.06667  0.04501  0.00970  1.0000
  Ca  Ca35      1.0  0.62618  0.09007  0.83883  1.0000
  Ca  Ca36      1.0  0.13967  0.98520  0.76109  1.0000
  Ca  Ca37      1.0  0.18877  0.99797  0.82052  1.0000
  Ca  Ca38      1.0  0.01268  0.99223  0.34265  1.0000
  Ca  Ca39      1.0  0.93395  0.52309  0.37618  1.0000
  Ca  Ca40      1.0  0.92581  0.57419  0.43174  1.0000
  Ca  Ca41      1.0  0.64424  0.92454  0.30482  1.0000
  Ca  Ca42      1.0  0.68070  0.84151  0.24814  1.0000
  Ca  Ca43      1.0  0.42279  0.19097  0.49354  1.0000
  Ca  Ca44      1.0  0.35422  0.21340  0.48569  1.0000
  Ca  Ca45      1.0  0.36099  0.24572  0.55062  1.0000
  Ca  Ca46      1.0  0.96186  0.13973  0.38836  1.0000
  Ca  Ca47      1.0  0.60732  0.56118  0.23147  1.0000
  Ca  Ca48      1.0  0.51147  0.67165  0.16577  1.0000
  Ca  Ca49      1.0  0.45627  0.65415  0.34847  1.0000
  Ca  Ca50      1.0  0.46583  0.60902  0.16013  1.0000
  Ca  Ca51      1.0  0.50104  0.63691  0.24133  1.0000
  Ca  Ca52      1.0  0.48544  0.55028  0.24484  1.0000
  Ca  Ca53      1.0  0.47291  0.60248  0.29837  1.0000
  Ca  Ca54      1.0  0.52044  0.56052  0.12470  1.0000
  Ca  Ca55      1.0  0.48207  0.50915  0.12444  1.0000
  Ca  Ca56      1.0  0.22876  0.58270  0.52861  1.0000
  Ca  Ca57      1.0  0.19283  0.61444  0.85680  1.0000
  Ca  Ca58      1.0  0.31645  0.33244  0.22920  1.0000
  Ca  Ca59      1.0  0.63516  0.52890  0.02595  1.0000
  Ca  Ca60      1.0  0.21871  0.91179  0.79274  1.0000
  Ca  Ca61      1.0  0.07249  0.81393  0.48802  1.0000
  Ca  Ca62      1.0  0.95383  0.21582  0.29099  1.0000
  Ca  Ca63      1.0  0.81887  0.72600  0.37187  1.0000
  Ca  Ca64      1.0  0.44772  0.91935  0.25082  1.0000
  Ca  Ca65      1.0  0.70368  0.51184  0.40942  1.0000
  Ca  Ca66      1.0  0.62108  0.40538  0.81737  1.0000
  Ca  Ca67      1.0  0.07508  0.53956  0.74649  1.0000
  Ca  Ca68      1.0  0.11776  0.59516  0.79527  1.0000
  Ca  Ca69      1.0  0.16678  0.58195  0.74940  1.0000
  Ca  Ca70      1.0  0.17166  0.53415  0.81088  1.0000
  Ca  Ca71      1.0  0.72671  0.47338  0.71290  1.0000
  Ca  Ca72      1.0  0.58747  0.40324  0.74194  1.0000
  Ca  Ca73      1.0  0.24389  0.61066  0.65500  1.0000
  Ca  Ca74      1.0  0.22050  0.16899  0.06269  1.0000
  Ca  Ca75      1.0  0.01766  0.15013  0.10193  1.0000
  Ca  Ca76      1.0  0.08959  0.16354  0.11725  1.0000
  Ca  Ca77      1.0  0.26020  0.09388  0.05931  1.0000
  Ca  Ca78      1.0  0.21900  0.01275  0.35565  1.0000
  Ca  Ca79      1.0  0.85607  0.71487  0.46278  1.0000
  Ca  Ca80      1.0  0.85914  0.76548  0.42393  1.0000
  Ca  Ca81      1.0  0.00618  0.58976  0.09336  1.0000
  Ca  Ca82      1.0  0.23610  0.23432  0.22419  1.0000
  Ca  Ca83      1.0  0.26254  0.25759  0.29008  1.0000
  Ca  Ca84      1.0  0.17811  0.30978  0.28461  1.0000
  Ca  Ca85      1.0  0.20511  0.30105  0.18742  1.0000
  Ca  Ca86      1.0  0.59188  0.37746  0.24305  1.0000
  Ca  Ca87      1.0  0.66454  0.49827  0.28174  1.0000
  Ca  Ca88      1.0  0.61180  0.42594  0.18524  1.0000
  Ca  Ca89      1.0  0.72563  0.34182  0.99976  1.0000
  Ca  Ca90      1.0  0.49784  0.21073  0.05205  1.0000
  Ca  Ca91      1.0  0.56966  0.25309  0.11748  1.0000
  Ca  Ca92      1.0  0.71139  0.76684  0.10816  1.0000
  Ca  Ca93      1.0  0.65450  0.80547  0.47141  1.0000
  Ca  Ca94      1.0  0.69984  0.73960  0.44782  1.0000
  Ca  Ca95      1.0  0.68101  0.74280  0.36805  1.0000
  Ca  Ca96      1.0  0.63552  0.65878  0.63516  1.0000
  Ca  Ca97      1.0  0.73739  0.29399  0.74251  1.0000
  Ca  Ca98      1.0  0.09341  0.26636  0.67338  1.0000
  Ca  Ca99      1.0  0.55811  0.21719  0.61285  1.0000
  Ca  Ca100     1.0  0.58086  0.27768  0.62543  1.0000
  Ca  Ca101     1.0  0.11763  0.31539  0.44513  1.0000
  Ca  Ca102     1.0  0.17865  0.26817  0.41550  1.0000
  Ca  Ca103     1.0  0.04110  0.38476  0.46345  1.0000
  Ca  Ca104     1.0  0.87641  0.90947  0.12311  1.0000
  Ca  Ca105     1.0  0.75173  0.75258  0.96625  1.0000
  Ca  Ca106     1.0  0.09102  0.02261  0.78627  1.0000
  Ca  Ca107     1.0  0.29476  0.31428  0.72679  1.0000
  Ca  Ca108     1.0  0.84261  0.74593  0.70776  1.0000
  Ca  Ca109     1.0  0.73338  0.61593  0.55408  1.0000
  Ca  Ca110     1.0  0.46094  0.17852  0.11670  1.0000
  Ca  Ca111     1.0  0.21066  0.10286  0.35272  1.0000
  Ca  Ca112     1.0  0.24699  0.17522  0.42892  1.0000
  Ca  Ca113     1.0  0.53661  0.45948  0.04976  1.0000
  Ca  Ca114     1.0  0.54569  0.50398  0.99495  1.0000
  Ca  Ca115     1.0  0.49398  0.47090  0.96820  1.0000
  Ca  Ca116     1.0  0.39994  0.41540  0.13856  1.0000
  Ca  Ca117     1.0  0.71331  0.82540  0.53095  1.0000
  Ca  Ca118     1.0  0.79569  0.81014  0.27400  1.0000
  Ca  Ca119     1.0  0.80593  0.70165  0.88885  1.0000
  Ca  Ca120     1.0  0.44466  0.92175  0.62613  1.0000
  Ca  Ca121     1.0  0.57041  0.24593  0.39341  1.0000
  Ca  Ca122     1.0  0.46537  0.25419  0.45577  1.0000
  Ca  Ca123     1.0  0.50708  0.23618  0.37693  1.0000
  Ca  Ca124     1.0  0.05346  0.08484  0.86850  1.0000
  Ca  Ca125     1.0  0.96655  0.95208  0.76060  1.0000
  Ca  Ca126     1.0  0.24182  0.88809  0.35024  1.0000
  Ca  Ca127     1.0  0.05207  0.80521  0.23563  1.0000
  Ca  Ca128     1.0  0.67072  0.68747  0.01969  1.0000
  Ca  Ca129     1.0  0.73027  0.68932  0.04481  1.0000
  Ca  Ca130     1.0  0.33106  0.63876  0.05771  1.0000
  Ca  Ca131     1.0  0.13414  0.60719  0.67048  1.0000
  Ca  Ca132     1.0  0.30699  0.93070  0.35757  1.0000
  Ca  Ca133     1.0  0.21864  0.95550  0.39606  1.0000
  Ca  Ca134     1.0  0.62219  0.65045  0.82293  1.0000
  Ca  Ca135     1.0  0.69266  0.66823  0.79317  1.0000
  Ca  Ca136     1.0  0.71894  0.69078  0.86525  1.0000
  Ca  Ca137     1.0  0.71468  0.63786  0.73811  1.0000
  Ca  Ca138     1.0  0.89727  0.17783  0.12388  1.0000
  Ca  Ca139     1.0  0.85645  0.22229  0.16635  1.0000
  Ca  Ca140     1.0  0.85435  0.25412  0.11196  1.0000
  Ca  Ca141     1.0  0.94388  0.60302  0.75724  1.0000
  Ca  Ca142     1.0  0.86508  0.57082  0.73919  1.0000
  Ca  Ca143     1.0  0.85102  0.64188  0.83040  1.0000
  Ca  Ca144     1.0  0.77378  0.63940  0.83033  1.0000
  Ca  Ca145     1.0  0.76276  0.64741  0.95534  1.0000
  Ca  Ca146     1.0  0.89396  0.55633  0.87532  1.0000
  Ca  Ca147     1.0  0.49800  0.00348  0.35870  1.0000
  Ca  Ca148     1.0  0.36077  0.90797  0.34971  1.0000
  Ca  Ca149     1.0  0.42344  0.92085  0.41218  1.0000
  Ca  Ca150     1.0  0.87111  0.81917  0.22179  1.0000
  Ca  Ca151     1.0  0.81551  0.76657  0.20863  1.0000
  Ca  Ca152     1.0  0.92572  0.83420  0.27582  1.0000
  Ca  Ca153     1.0  0.86952  0.69908  0.32395  1.0000
  Ca  Ca154     1.0  0.52158  0.47162  0.19276  1.0000
  Ca  Ca155     1.0  0.64983  0.00107  0.06102  1.0000
  Ca  Ca156     1.0  0.81917  0.81216  0.88471  1.0000
  Ca  Ca157     1.0  0.67030  0.47643  0.63575  1.0000
  Ca  Ca158     1.0  0.81706  0.33391  0.66062  1.0000
  Ca  Ca159     1.0  0.69354  0.41830  0.60698  1.0000
  Ca  Ca160     1.0  0.12003  0.90990  0.03289  1.0000
  Ca  Ca161     1.0  0.11903  0.84870  0.07052  1.0000
  Ca  Ca162     1.0  0.17740  0.00640  0.11357  1.0000
  Ca  Ca163     1.0  0.21745  0.01030  0.97329  1.0000
  Ca  Ca164     1.0  0.93329  0.02914  0.76463  1.0000
  Ca  Ca165     1.0  0.74390  0.38699  0.37336  1.0000
  Ca  Ca166     1.0  0.73900  0.42816  0.25300  1.0000
  Ca  Ca167     1.0  0.72393  0.46710  0.32905  1.0000
  Ca  Ca168     1.0  0.75766  0.24829  0.45008  1.0000
  Ca  Ca169     1.0  0.19093  0.33629  0.42773  1.0000
  Ca  Ca170     1.0  0.48109  0.13483  0.32274  1.0000
  Ca  Ca171     1.0  0.40323  0.13650  0.35903  1.0000
  Ca  Ca172     1.0  0.45053  0.07537  0.33348  1.0000
  Ca  Ca173     1.0  0.34142  0.88748  0.57568  1.0000
  Ca  Ca174     1.0  0.31281  0.04437  0.54235  1.0000
  Ca  Ca175     1.0  0.54649  0.93196  0.02658  1.0000
  Ca  Ca176     1.0  0.93947  0.24634  0.87083  1.0000
  Ca  Ca177     1.0  0.13991  0.14873  0.35710  1.0000
  Ca  Ca178     1.0  0.12427  0.00051  0.38268  1.0000
  Ca  Ca179     1.0  0.05898  0.95985  0.38382  1.0000
  Ca  Ca180     1.0  0.07586  0.02818  0.35438  1.0000
  Ca  Ca181     1.0  0.69911  0.98922  0.72743  1.0000
  Ca  Ca182     1.0  0.17681  0.03992  0.64818  1.0000
  Ca  Ca183     1.0  0.19480  0.03543  0.75188  1.0000
  Ca  Ca184     1.0  0.25601  0.99459  0.79230  1.0000
  Ca  Ca185     1.0  0.30373  0.00086  0.71449  1.0000
  Ca  Ca186     1.0  0.39454  0.14465  0.71640  1.0000
  Ca  Ca187     1.0  0.26940  0.37520  0.04135  1.0000
  Ca  Ca188     1.0  0.24676  0.36211  0.13322  1.0000
  Ca  Ca189     1.0  0.25664  0.45850  0.13061  1.0000
  Ca  Ca190     1.0  0.71386  0.82433  0.69246  1.0000
  Ca  Ca191     1.0  0.06995  0.11563  0.43873  1.0000
  Ca  Ca192     1.0  0.96007  0.19919  0.15044  1.0000
  Ca  Ca193     1.0  0.99197  0.13198  0.25350  1.0000
  Ca  Ca194     1.0  0.84368  0.19745  0.39205  1.0000
  Ca  Ca195     1.0  0.13486  0.91860  0.18573  1.0000
  Ca  Ca196     1.0  0.95885  0.35797  0.22986  1.0000
  Ca  Ca197     1.0  0.47516  0.29388  0.58338  1.0000
  Ca  Ca198     1.0  0.44485  0.96120  0.08108  1.0000
  Ca  Ca199     1.0  0.36056  0.93036  0.00756  1.0000
  Ca  Ca200     1.0  0.40406  0.76799  0.84260  1.0000
  Ca  Ca201     1.0  0.74572  0.80718  0.21972  1.0000
  Ca  Ca202     1.0  0.70588  0.72576  0.29295  1.0000
  Ca  Ca203     1.0  0.24825  0.89732  0.71239  1.0000
  Ca  Ca204     1.0  0.57823  0.07367  0.14065  1.0000
  Ca  Ca205     1.0  0.36780  0.07848  0.57243  1.0000
  Ca  Ca206     1.0  0.28407  0.46090  0.87466  1.0000
  Ca  Ca207     1.0  0.36365  0.35366  0.73864  1.0000
  Ca  Ca208     1.0  0.48158  0.84615  0.11894  1.0000
  Ca  Ca209     1.0  0.87926  0.76408  0.27713  1.0000
  Ca  Ca210     1.0  0.59079  0.52682  0.31199  1.0000
  Ca  Ca211     1.0  0.47741  0.65719  0.43554  1.0000
  Ca  Ca212     1.0  0.55007  0.59170  0.44561  1.0000
  Ca  Ca213     1.0  0.16568  0.77010  0.14950  1.0000
  Ca  Ca214     1.0  0.78188  0.84037  0.71113  1.0000
  Ca  Ca215     1.0  0.78878  0.88066  0.65415  1.0000
  Ca  Ca216     1.0  0.84101  0.88103  0.71716  1.0000
  Ca  Ca217     1.0  0.82478  0.84086  0.56115  1.0000
  Ca  Ca218     1.0  0.98940  0.53700  0.76776  1.0000
  Ca  Ca219     1.0  0.04270  0.46945  0.75510  1.0000
  Ca  Ca220     1.0  0.84563  0.40981  0.89495  1.0000
  Ca  Ca221     1.0  0.21753  0.30052  0.97285  1.0000
  Ca  Ca222     1.0  0.09019  0.42271  0.10447  1.0000
  Ca  Ca223     1.0  0.11998  0.45719  0.70531  1.0000
  Ca  Ca224     1.0  0.07614  0.38772  0.66273  1.0000
  Ca  Ca225     1.0  0.06622  0.37394  0.86259  1.0000
  Ca  Ca226     1.0  0.06236  0.45034  0.89065  1.0000
  Ca  Ca227     1.0  0.86010  0.42000  0.77473  1.0000
  Ca  Ca228     1.0  0.88032  0.42132  0.95727  1.0000
  Ca  Ca229     1.0  0.83377  0.46122  0.83963  1.0000
  Ca  Ca230     1.0  0.96623  0.41153  0.93241  1.0000
  Ca  Ca231     1.0  0.97682  0.36471  0.88912  1.0000
  Ca  Ca232     1.0  0.13365  0.37261  0.16400  1.0000
  Ca  Ca233     1.0  0.14073  0.42332  0.57018  1.0000
  Ca  Ca234     1.0  0.04638  0.46216  0.13922  1.0000
  Ca  Ca235     1.0  0.99257  0.42006  0.51572  1.0000
  Ca  Ca236     1.0  0.12860  0.43218  0.29477  1.0000
  Ca  Ca237     1.0  0.07722  0.44976  0.49401  1.0000
  Ca  Ca238     1.0  0.97628  0.37257  0.41711  1.0000
  Ca  Ca239     1.0  0.11982  0.43452  0.40385  1.0000
  Ca  Ca240     1.0  0.90605  0.15978  0.38305  1.0000
  Ca  Ca241     1.0  0.92340  0.24782  0.57948  1.0000
  Ca  Ca242     1.0  0.74712  0.10272  0.49160  1.0000
  Ca  Ca243     1.0  0.75356  0.16921  0.47048  1.0000
  Ca  Ca244     1.0  0.78699  0.21023  0.63858  1.0000
  Ca  Ca245     1.0  0.77567  0.23428  0.72503  1.0000
  Ca  Ca246     1.0  0.88545  0.32434  0.87023  1.0000
  Ca  Ca247     1.0  0.00788  0.13587  0.76372  1.0000
  Ca  Ca248     1.0  0.06156  0.19121  0.64877  1.0000
  Ca  Ca249     1.0  0.97604  0.21066  0.60488  1.0000
  Ca  Ca250     1.0  0.06464  0.24338  0.51250  1.0000
  Ca  Ca251     1.0  0.99914  0.18689  0.49637  1.0000
  Ca  Ca252     1.0  0.09520  0.12600  0.53500  1.0000
  Ca  Ca253     1.0  0.95788  0.11406  0.58202  1.0000
  Ca  Ca254     1.0  0.98813  0.27892  0.80129  1.0000
  Ca  Ca255     1.0  0.95861  0.20922  0.79669  1.0000
  Ca  Ca256     1.0  0.00600  0.26501  0.45270  1.0000
  Ca  Ca257     1.0  0.95651  0.08657  0.81649  1.0000
  Ca  Ca258     1.0  0.14337  0.10283  0.46196  1.0000
  Ca  Ca259     1.0  0.11519  0.21741  0.57490  1.0000
  Ca  Ca260     1.0  0.88267  0.28036  0.64809  1.0000
  Ca  Ca261     1.0  0.94731  0.41105  0.83245  1.0000
  Ca  Ca262     1.0  0.18704  0.41227  0.91115  1.0000
  Ca  Ca263     1.0  0.81806  0.38699  0.52822  1.0000
  Ca  Ca264     1.0  0.71525  0.33756  0.51898  1.0000
  Ca  Ca265     1.0  0.78465  0.34217  0.51312  1.0000
  Ca  Ca266     1.0  0.70264  0.02405  0.45857  1.0000
  Ca  Ca267     1.0  0.75620  0.01854  0.42588  1.0000
  Ca  Ca268     1.0  0.75472  0.93000  0.46211  1.0000
  Ca  Ca269     1.0  0.75947  0.97855  0.28614  1.0000
  Ca  Ca270     1.0  0.31486  0.30697  0.56760  1.0000
  Ca  Ca271     1.0  0.45368  0.68941  0.84083  1.0000
  Ca  Ca272     1.0  0.44407  0.17800  0.91502  1.0000
  Ca  Ca273     1.0  0.74115  0.23476  0.91206  1.0000
  Ca  Ca274     1.0  0.19475  0.94173  0.30489  1.0000
  Ca  Ca275     1.0  0.05754  0.04880  0.28050  1.0000
  Ca  Ca276     1.0  0.13319  0.01612  0.16733  1.0000
  Ca  Ca277     1.0  0.97966  0.03956  0.07164  1.0000
  Ca  Ca278     1.0  0.02835  0.04754  0.94082  1.0000
  Ca  Ca279     1.0  0.07561  0.94131  0.19120  1.0000
  Ca  Ca280     1.0  0.93614  0.02711  0.99431  1.0000
  Ca  Ca281     1.0  0.98515  0.08414  0.14977  1.0000
  Ca  Ca282     1.0  0.01689  0.91912  0.05412  1.0000
  Ca  Ca283     1.0  0.98245  0.85757  0.05451  1.0000
  Ca  Ca284     1.0  0.57601  0.10450  0.25886  1.0000
  Ca  Ca285     1.0  0.62112  0.08775  0.32342  1.0000
  Ca  Ca286     1.0  0.30169  0.23502  0.94725  1.0000
  Ca  Ca287     1.0  0.84097  0.71335  0.97650  1.0000
  Ca  Ca288     1.0  0.91100  0.80191  0.97896  1.0000
  Ca  Ca289     1.0  0.72177  0.34315  0.32604  1.0000
  Ca  Ca290     1.0  0.86089  0.30121  0.70916  1.0000
  Ca  Ca291     1.0  0.01028  0.37436  0.58683  1.0000
  Ca  Ca292     1.0  0.02084  0.15214  0.55780  1.0000
  Ca  Ca293     1.0  0.66208  0.56113  0.37831  1.0000
  Ca  Ca294     1.0  0.65619  0.86929  0.71904  1.0000
  Ca  Ca295     1.0  0.76522  0.01995  0.14798  1.0000
  Ca  Ca296     1.0  0.74031  0.28613  0.52164  1.0000
  Ca  Ca297     1.0  0.63964  0.38632  0.50799  1.0000
  Ca  Ca298     1.0  0.58579  0.73918  0.83494  1.0000
  Ca  Ca299     1.0  0.76541  0.76478  0.84129  1.0000
  Ca  Ca300     1.0  0.83631  0.59789  0.61879  1.0000
  Ca  Ca301     1.0  0.48767  0.79695  0.44408  1.0000
  Ca  Ca302     1.0  0.43722  0.80142  0.57089  1.0000
  Ca  Ca303     1.0  0.61416  0.75915  0.50109  1.0000
  Ca  Ca304     1.0  0.70391  0.65904  0.60888  1.0000
  Ca  Ca305     1.0  0.56995  0.74142  0.30265  1.0000
  Ca  Ca306     1.0  0.50143  0.76344  0.29071  1.0000
  Ca  Ca307     1.0  0.76102  0.61681  0.67844  1.0000
  Ca  Ca308     1.0  0.63695  0.79231  0.70579  1.0000
  Ca  Ca309     1.0  0.64834  0.71485  0.65542  1.0000
  Ca  Ca310     1.0  0.57413  0.63513  0.47478  1.0000
  Ca  Ca311     1.0  0.67511  0.44077  0.78677  1.0000
  Ca  Ca312     1.0  0.54932  0.74935  0.49723  1.0000
  Ca  Ca313     1.0  0.70933  0.67835  0.67125  1.0000
  Ca  Ca314     1.0  0.75299  0.56094  0.63312  1.0000
  Ca  Ca315     1.0  0.58155  0.74114  0.61644  1.0000
  Ca  Ca316     1.0  0.88995  0.38572  0.32634  1.0000
  Ca  Ca317     1.0  0.93814  0.44152  0.34625  1.0000
  Ca  Ca318     1.0  0.57696  0.91481  0.29975  1.0000
  Ca  Ca319     1.0  0.49713  0.06313  0.37871  1.0000
  Ca  Ca320     1.0  0.63930  0.30169  0.86650  1.0000
  Ca  Ca321     1.0  0.60792  0.24123  0.93102  1.0000
  Ca  Ca322     1.0  0.74917  0.30316  0.94919  1.0000
  Ca  Ca323     1.0  0.91780  0.64626  0.08404  1.0000
  Ca  Ca324     1.0  0.77451  0.41659  0.84892  1.0000
  Ca  Ca325     1.0  0.71407  0.55477  0.08132  1.0000
  Ca  Ca326     1.0  0.95813  0.56270  0.13081  1.0000
  Ca  Ca327     1.0  0.86141  0.48098  0.28249  1.0000
  Ca  Ca328     1.0  0.92490  0.50648  0.23453  1.0000
  Ca  Ca329     1.0  0.82153  0.38474  0.95625  1.0000
  Ca  Ca330     1.0  0.81856  0.35945  0.89049  1.0000
  Ca  Ca331     1.0  0.75093  0.34665  0.89789  1.0000
  Ca  Ca332     1.0  0.83030  0.52256  0.88371  1.0000
  Ca  Ca333     1.0  0.17610  0.95079  0.61141  1.0000
  Ca  Ca334     1.0  0.10064  0.02169  0.50496  1.0000
  Ca  Ca335     1.0  0.17724  0.04171  0.51184  1.0000
  Ca  Ca336     1.0  0.35787  0.47735  0.08619  1.0000
  Ca  Ca337     1.0  0.48799  0.39351  0.96674  1.0000
  Ca  Ca338     1.0  0.38141  0.55511  0.76537  1.0000
  Ca  Ca339     1.0  0.41499  0.51629  0.09175  1.0000
  Ca  Ca340     1.0  0.39995  0.50074  0.73918  1.0000
  Ca  Ca341     1.0  0.21927  0.71460  0.43609  1.0000
  Ca  Ca342     1.0  0.20001  0.71787  0.10804  1.0000
  Ca  Ca343     1.0  0.25918  0.62865  0.36940  1.0000
  Ca  Ca344     1.0  0.34168  0.56778  0.33397  1.0000
  Ca  Ca345     1.0  0.21133  0.58420  0.31744  1.0000
  Ca  Ca346     1.0  0.33476  0.64927  0.58051  1.0000
  Ca  Ca347     1.0  0.29850  0.56422  0.65827  1.0000
  Ca  Ca348     1.0  0.21560  0.60824  0.03254  1.0000
  Ca  Ca349     1.0  0.14550  0.50642  0.99920  1.0000
  Ca  Ca350     1.0  0.17292  0.51409  0.19909  1.0000
  Ca  Ca351     1.0  0.98681  0.50926  0.99398  1.0000
  Ca  Ca352     1.0  0.27013  0.65633  0.60066  1.0000
  Ca  Ca353     1.0  0.40595  0.55185  0.64969  1.0000
  Ca  Ca354     1.0  0.28158  0.56386  0.28423  1.0000
  Ca  Ca355     1.0  0.11626  0.55079  0.35852  1.0000
  Ca  Ca356     1.0  0.30567  0.57579  0.45910  1.0000
  Ca  Ca357     1.0  0.16004  0.96542  0.23811  1.0000
  Ca  Ca358     1.0  0.30580  0.11788  0.89740  1.0000
  Ca  Ca359     1.0  0.27540  0.19690  0.72284  1.0000
  Ca  Ca360     1.0  0.22029  0.14238  0.73019  1.0000
  Ca  Ca361     1.0  0.17477  0.07971  0.01562  1.0000
  Ca  Ca362     1.0  0.24695  0.04299  0.47518  1.0000
  Ca  Ca363     1.0  0.32511  0.17421  0.76502  1.0000
  Ca  Ca364     1.0  0.21627  0.13958  0.56112  1.0000
  Ca  Ca365     1.0  0.31074  0.45708  0.25780  1.0000
  Ca  Ca366     1.0  0.24477  0.49893  0.18879  1.0000
  Ca  Ca367     1.0  0.37490  0.49067  0.24495  1.0000
  Ca  Ca368     1.0  0.48745  0.46600  0.35467  1.0000
  Ca  Ca369     1.0  0.36709  0.15329  0.64343  1.0000
  Ca  Ca370     1.0  0.81876  0.92102  0.87943  1.0000
  Ca  Ca371     1.0  0.74924  0.08773  0.29404  1.0000
  Ca  Ca372     1.0  0.64669  0.15992  0.29942  1.0000
  Ca  Ca373     1.0  0.72260  0.08527  0.38941  1.0000
  Ca  Ca374     1.0  0.05884  0.93092  0.46268  1.0000
  Ca  Ca375     1.0  0.99658  0.94812  0.41731  1.0000
  Ca  Ca376     1.0  0.05297  0.92120  0.27187  1.0000
  Ca  Ca377     1.0  0.94555  0.83538  0.18994  1.0000
  Ca  Ca378     1.0  0.74268  0.92428  0.21951  1.0000
  Ca  Ca379     1.0  0.89841  0.04102  0.18726  1.0000
  Ca  Ca380     1.0  0.85915  0.90193  0.32244  1.0000
  Ca  Ca381     1.0  0.92170  0.84934  0.39700  1.0000
  Ca  Ca382     1.0  0.81375  0.02832  0.36829  1.0000
  Ca  Ca383     1.0  0.84079  0.98699  0.26172  1.0000
  Ca  Ca384     1.0  0.16113  0.04067  0.93502  1.0000
  Ca  Ca385     1.0  0.65311  0.77382  0.79715  1.0000
  Ca  Ca386     1.0  0.71552  0.71579  0.73059  1.0000
  Ca  Ca387     1.0  0.94128  0.58815  0.89452  1.0000
  Ca  Ca388     1.0  0.11920  0.73397  0.86968  1.0000
  Ca  Ca389     1.0  0.24744  0.84043  0.99117  1.0000
  Ca  Ca390     1.0  0.22372  0.89844  0.04702  1.0000
  Ca  Ca391     1.0  0.31753  0.74875  0.04235  1.0000
  Ca  Ca392     1.0  0.24581  0.82578  0.10392  1.0000
  Ca  Ca393     1.0  0.36671  0.87796  0.12679  1.0000
  Ca  Ca394     1.0  0.83869  0.66104  0.50463  1.0000
  Ca  Ca395     1.0  0.19562  0.95141  0.03410  1.0000
  Ca  Ca396     1.0  0.07142  0.82654  0.98176  1.0000
  Ca  Ca397     1.0  0.84099  0.70574  0.81764  1.0000
  Ca  Ca398     1.0  0.16789  0.81334  0.90892  1.0000
  Ca  Ca399     1.0  0.15701  0.70399  0.73381  1.0000
  Ca  Ca400     1.0  0.86409  0.54045  0.42446  1.0000
  Ca  Ca401     1.0  0.78560  0.62095  0.34761  1.0000
  Ca  Ca402     1.0  0.12929  0.68257  0.66623  1.0000
  Ca  Ca403     1.0  0.87570  0.66686  0.88357  1.0000
  Ca  Ca404     1.0  0.13577  0.59697  0.87184  1.0000
  Ca  Ca405     1.0  0.19200  0.58067  0.91846  1.0000
  Ca  Ca406     1.0  0.98785  0.86317  0.60585  1.0000
  Ca  Ca407     1.0  0.11010  0.76342  0.75888  1.0000
  Ca  Ca408     1.0  0.18826  0.95903  0.94352  1.0000
  Ca  Ca409     1.0  0.01051  0.92593  0.71386  1.0000
  Ca  Ca410     1.0  0.93672  0.85198  0.51350  1.0000
  Ca  Ca411     1.0  0.97620  0.79814  0.56612  1.0000
  Ca  Ca412     1.0  0.06288  0.84736  0.61777  1.0000
  Ca  Ca413     1.0  0.14183  0.91976  0.72207  1.0000
  Ca  Ca414     1.0  0.12251  0.98826  0.91447  1.0000
  Ca  Ca415     1.0  0.06403  0.66767  0.94063  1.0000
  Ca  Ca416     1.0  0.92202  0.91701  0.52262  1.0000
  Ca  Ca417     1.0  0.03368  0.79305  0.73124  1.0000
  Ca  Ca418     1.0  0.50503  0.86465  0.90943  1.0000
  Ca  Ca419     1.0  0.63068  0.92010  0.87505  1.0000
  Ca  Ca420     1.0  0.73694  0.95577  0.89503  1.0000
  Ca  Ca421     1.0  0.67143  0.89893  0.98784  1.0000
  Ca  Ca422     1.0  0.72418  0.83269  0.00464  1.0000
  Ca  Ca423     1.0  0.69348  0.84237  0.09990  1.0000
  Ca  Ca424     1.0  0.78783  0.24671  0.10488  1.0000
  Ca  Ca425     1.0  0.67808  0.18554  0.92376  1.0000
  Ca  Ca426     1.0  0.68589  0.21348  0.02956  1.0000
  Ca  Ca427     1.0  0.93411  0.26906  0.01264  1.0000
  Ca  Ca428     1.0  0.94221  0.33534  0.15302  1.0000
  Ca  Ca429     1.0  0.96952  0.32437  0.05940  1.0000
  Ca  Ca430     1.0  0.90818  0.36618  0.04675  1.0000
  Ca  Ca431     1.0  0.09625  0.40081  0.75055  1.0000
  Ca  Ca432     1.0  0.00696  0.35508  0.82334  1.0000
  Ca  Ca433     1.0  0.09114  0.30183  0.90524  1.0000
  Ca  Ca434     1.0  0.99005  0.28456  0.99167  1.0000
  Ca  Ca435     1.0  0.05574  0.31435  0.97878  1.0000
  Ca  Ca436     1.0  0.34191  0.31630  0.06383  1.0000
  Ca  Ca437     1.0  0.04522  0.23111  0.00578  1.0000
  Ca  Ca438     1.0  0.16228  0.23227  0.24362  1.0000
  Ca  Ca439     1.0  0.16456  0.16116  0.15200  1.0000
  Ca  Ca440     1.0  0.46508  0.32845  0.21182  1.0000
  Ca  Ca441     1.0  0.14977  0.22301  0.10467  1.0000
  Ca  Ca442     1.0  0.36577  0.30476  0.13762  1.0000
  Ca  Ca443     1.0  0.10014  0.32662  0.06201  1.0000
  Ca  Ca444     1.0  0.82230  0.01167  0.54124  1.0000
  Ca  Ca445     1.0  0.77265  0.15910  0.93942  1.0000
  Ca  Ca446     1.0  0.39108  0.30560  0.02501  1.0000
  Ca  Ca447     1.0  0.46434  0.28190  0.97791  1.0000
  Ca  Ca448     1.0  0.72878  0.06228  0.08234  1.0000
  Ca  Ca449     1.0  0.65395  0.07694  0.03907  1.0000
  Ca  Ca450     1.0  0.72750  0.02162  0.95913  1.0000
  Ca  Ca451     1.0  0.31493  0.16661  0.08267  1.0000
  Ca  Ca452     1.0  0.37881  0.20067  0.99440  1.0000
  Ca  Ca453     1.0  0.34006  0.98937  0.23807  1.0000
  Ca  Ca454     1.0  0.20825  0.03249  0.24328  1.0000
  Ca  Ca455     1.0  0.43046  0.04940  0.20777  1.0000
  Ca  Ca456     1.0  0.57702  0.16222  0.68086  1.0000
  Ca  Ca457     1.0  0.88061  0.01183  0.65685  1.0000
  Ca  Ca458     1.0  0.56724  0.11897  0.61007  1.0000
  Ca  Ca459     1.0  0.77057  0.20317  0.83510  1.0000
  Ca  Ca460     1.0  0.62851  0.89637  0.38653  1.0000
  Ca  Ca461     1.0  0.54054  0.25229  0.88687  1.0000
  Ca  Ca462     1.0  0.52970  0.19501  0.78635  1.0000
  Ca  Ca463     1.0  0.40536  0.93134  0.94087  1.0000
  Ca  Ca464     1.0  0.35725  0.98964  0.65698  1.0000
  Ca  Ca465     1.0  0.48954  0.10915  0.58501  1.0000
  Ca  Ca466     1.0  0.56681  0.04604  0.85403  1.0000
  Ca  Ca467     1.0  0.42474  0.99141  0.88675  1.0000
  Ca  Ca468     1.0  0.55671  0.99618  0.79006  1.0000
  Ca  Ca469     1.0  0.38067  0.31857  0.80989  1.0000
  Ca  Ca470     1.0  0.44141  0.03322  0.84790  1.0000
  Ca  Ca471     1.0  0.77681  0.15863  0.56701  1.0000
  Ca  Ca472     1.0  0.58769  0.85128  0.66674  1.0000
  Ca  Ca473     1.0  0.38592  0.02759  0.92652  1.0000
  Ca  Ca474     1.0  0.54653  0.05600  0.00262  1.0000
  Ca  Ca475     1.0  0.62943  0.93242  0.46849  1.0000
  Ca  Ca476     1.0  0.50719  0.18981  0.89500  1.0000
  Ca  Ca477     1.0  0.37861  0.03202  0.27263  1.0000
  Ca  Ca478     1.0  0.33062  0.14222  0.01453  1.0000
  Ca  Ca479     1.0  0.51043  0.01965  0.86302  1.0000
  Ca  Ca480     1.0  0.57596  0.99616  0.98808  1.0000
  Ca  Ca481     1.0  0.16911  0.32611  0.10228  1.0000
  Ca  Ca482     1.0  0.61199  0.11448  0.53961  1.0000
  Ca  Ca483     1.0  0.25803  0.13148  0.12696  1.0000
  Ca  Ca484     1.0  0.35155  0.21487  0.18892  1.0000
  Ca  Ca485     1.0  0.79787  0.12664  0.73423  1.0000
  Ca  Ca486     1.0  0.06086  0.64314  0.20311  1.0000
  Ca  Ca487     1.0  0.06764  0.63053  0.10278  1.0000
  Ca  Ca488     1.0  0.06422  0.60247  0.31524  1.0000
  Ca  Ca489     1.0  0.17882  0.82342  0.34842  1.0000
  Ca  Ca490     1.0  0.25786  0.74376  0.35468  1.0000
  Ca  Ca491     1.0  0.16876  0.83080  0.25473  1.0000
  Ca  Ca492     1.0  0.18457  0.71920  0.33121  1.0000
  Ca  Ca493     1.0  0.69551  0.25931  0.20640  1.0000
  Ca  Ca494     1.0  0.66467  0.39354  0.21386  1.0000
  Ca  Ca495     1.0  0.91341  0.38592  0.66293  1.0000
  Ca  Ca496     1.0  0.69377  0.65424  0.44512  1.0000
  Ca  Ca497     1.0  0.87796  0.32689  0.39558  1.0000
  Ca  Ca498     1.0  0.57378  0.81045  0.28642  1.0000
  Ca  Ca499     1.0  0.87833  0.46054  0.59264  1.0000
  Ca  Ca500     1.0  0.90119  0.41105  0.58276  1.0000
  Ca  Ca501     1.0  0.84049  0.43835  0.38834  1.0000
  Ca  Ca502     1.0  0.94286  0.46431  0.67950  1.0000
  Ca  Ca503     1.0  0.93092  0.46211  0.52523  1.0000
  Ca  Ca504     1.0  0.56364  0.71019  0.22797  1.0000
  Ca  Ca505     1.0  0.80263  0.49054  0.43314  1.0000
  Ca  Ca506     1.0  0.74391  0.41159  0.96243  1.0000
  Ca  Ca507     1.0  0.73083  0.41207  0.04586  1.0000
  Ca  Ca508     1.0  0.63527  0.43564  0.99318  1.0000
  Ca  Ca509     1.0  0.62251  0.37148  0.03345  1.0000
  Ca  Ca510     1.0  0.97661  0.55212  0.59854  1.0000
  Ca  Ca511     1.0  0.36067  0.68715  0.21906  1.0000
  Ca  Ca512     1.0  0.43817  0.68534  0.20780  1.0000
  Ca  Ca513     1.0  0.27394  0.75411  0.23668  1.0000
  Ca  Ca514     1.0  0.43431  0.70046  0.12278  1.0000
  Ca  Ca515     1.0  0.33960  0.70190  0.34053  1.0000
  Ca  Ca516     1.0  0.38465  0.77582  0.29243  1.0000
  Ca  Ca517     1.0  0.50673  0.72867  0.78790  1.0000
  Ca  Ca518     1.0  0.55940  0.66847  0.94308  1.0000
  Ca  Ca519     1.0  0.57053  0.71695  0.09505  1.0000
  Ca  Ca520     1.0  0.56788  0.69522  0.02987  1.0000
  Ca  Ca521     1.0  0.53252  0.86387  0.03676  1.0000
  Ca  Ca522     1.0  0.56487  0.81592  0.87880  1.0000
  Ca  Ca523     1.0  0.52302  0.77742  0.08768  1.0000
  Ca  Ca524     1.0  0.65926  0.84153  0.81236  1.0000
  Ca  Ca525     1.0  0.71844  0.63692  0.24318  1.0000
  Ca  Ca526     1.0  0.75141  0.51905  0.15260  1.0000
  Ca  Ca527     1.0  0.87748  0.07684  0.64159  1.0000
  Ca  Ca528     1.0  0.50629  0.91445  0.72208  1.0000
  Ca  Ca529     1.0  0.90100  0.43046  0.11481  1.0000
  Ca  Ca530     1.0  0.99763  0.27876  0.10067  1.0000
  Ca  Ca531     1.0  0.44726  0.06926  0.93605  1.0000
  Ca  Ca532     1.0  0.16013  0.59200  0.22547  1.0000
  Ca  Ca533     1.0  0.38991  0.15427  0.07029  1.0000
  Ca  Ca534     1.0  0.98092  0.94602  0.28749  1.0000
  Ca  Ca535     1.0  0.27482  0.73021  0.15186  1.0000
  Ca  Ca536     1.0  0.91888  0.51018  0.60010  1.0000
  Ca  Ca537     1.0  0.39567  0.72302  0.05161  1.0000
  Ca  Ca538     1.0  0.41017  0.63756  0.83216  1.0000
  Ca  Ca539     1.0  0.37990  0.69018  0.92331  1.0000
  Ca  Ca540     1.0  0.39414  0.74733  0.95578  1.0000
  Ca  Ca541     1.0  0.48099  0.35231  0.30148  1.0000
  Ca  Ca542     1.0  0.16319  0.62488  0.40010  1.0000
  Ca  Ca543     1.0  0.18219  0.46430  0.61700  1.0000
  Ca  Ca544     1.0  0.39326  0.28475  0.62673  1.0000
  Ca  Ca545     1.0  0.88837  0.57229  0.28007  1.0000
  Ca  Ca546     1.0  0.92793  0.73424  0.20910  1.0000
  Ca  Ca547     1.0  0.96954  0.65759  0.27299  1.0000
  Ca  Ca548     1.0  0.00704  0.73223  0.37491  1.0000
  Ca  Ca549     1.0  0.34387  0.17978  0.33695  1.0000
  Ca  Ca550     1.0  0.27259  0.24424  0.41742  1.0000
  Ca  Ca551     1.0  0.34910  0.44805  0.65331  1.0000
  Ca  Ca552     1.0  0.38338  0.43916  0.47269  1.0000
  Ca  Ca553     1.0  0.34981  0.51308  0.61447  1.0000
  Ca  Ca554     1.0  0.28620  0.41563  0.44600  1.0000
  Ca  Ca555     1.0  0.44477  0.28067  0.30718  1.0000
  Ca  Ca556     1.0  0.42612  0.38059  0.35500  1.0000
  Ca  Ca557     1.0  0.26582  0.35088  0.43035  1.0000
  Ca  Ca558     1.0  0.46442  0.57386  0.72588  1.0000
  Ca  Ca559     1.0  0.14268  0.73657  0.41591  1.0000
  Ca  Ca560     1.0  0.46502  0.67808  0.64620  1.0000
  Ca  Ca561     1.0  0.42685  0.70123  0.72368  1.0000
  Ca  Ca562     1.0  0.16186  0.68778  0.46202  1.0000
  Ca  Ca563     1.0  0.17827  0.80334  0.50065  1.0000
  Ca  Ca564     1.0  0.19791  0.76510  0.39094  1.0000
  Ca  Ca565     1.0  0.37325  0.94707  0.46410  1.0000
  Ca  Ca566     1.0  0.19778  0.71558  0.57676  1.0000
  Ca  Ca567     1.0  0.30278  0.82287  0.40576  1.0000
  Ca  Ca568     1.0  0.54337  0.59290  0.86912  1.0000
  Ca  Ca569     1.0  0.58941  0.52250  0.93832  1.0000
  Ca  Ca570     1.0  0.36264  0.88092  0.49108  1.0000
  Ca  Ca571     1.0  0.59407  0.59268  0.63273  1.0000
  Ca  Ca572     1.0  0.49649  0.55657  0.56879  1.0000
  Ca  Ca573     1.0  0.52922  0.42695  0.73092  1.0000
  Ca  Ca574     1.0  0.48145  0.27907  0.15708  1.0000
  Ca  Ca575     1.0  0.39856  0.28092  0.40048  1.0000
  Ca  Ca576     1.0  0.66411  0.46497  0.16645  1.0000
  Ca  Ca577     1.0  0.76314  0.19558  0.01637  1.0000
  Ca  Ca578     1.0  0.43461  0.22276  0.22026  1.0000
  Ca  Ca579     1.0  0.43235  0.87484  0.70522  1.0000
  Ca  Ca580     1.0  0.89672  0.16228  0.00751  1.0000
  Ca  Ca581     1.0  0.38672  0.32111  0.33775  1.0000
  Ca  Ca582     1.0  0.43270  0.97287  0.17459  1.0000
  Ca  Ca583     1.0  0.25387  0.45958  0.32590  1.0000
  Ca  Ca584     1.0  0.42382  0.40488  0.92787  1.0000
  Ca  Ca585     1.0  0.52223  0.45155  0.29528  1.0000
  Ca  Ca586     1.0  0.40886  0.69733  0.37063  1.0000
  Ca  Ca587     1.0  0.22640  0.82539  0.55087  1.0000
  Ca  Ca588     1.0  0.22614  0.73934  0.19806  1.0000
  Ca  Ca589     1.0  0.04939  0.77631  0.55264  1.0000
  Ca  Ca590     1.0  0.78319  0.56482  0.41269  1.0000
  Ca  Ca591     1.0  0.91478  0.57880  0.62712  1.0000
  Ca  Ca592     1.0  0.54558  0.96197  0.32974  1.0000
  Ca  Ca593     1.0  0.58872  0.38757  0.56387  1.0000
  Ca  Ca594     1.0  0.77007  0.95707  0.38074  1.0000
  Ca  Ca595     1.0  0.06962  0.75033  0.61211  1.0000
  Ca  Ca596     1.0  0.67988  0.09134  0.26286  1.0000
  Ca  Ca597     1.0  0.65886  0.71089  0.82213  1.0000
  Ca  Ca598     1.0  0.17384  0.72850  0.92263  1.0000
  Ca  Ca599     1.0  0.42055  0.95994  0.76944  1.0000
  Ca  Ca600     1.0  0.96889  0.69061  0.59296  1.0000
  Ca  Ca601     1.0  0.96576  0.73178  0.77931  1.0000
  Ca  Ca602     1.0  0.32536  0.12547  0.71173  1.0000
  Ca  Ca603     1.0  0.22794  0.20289  0.67423  1.0000
  Ca  Ca604     1.0  0.27233  0.24940  0.76214  1.0000
  Ca  Ca605     1.0  0.53914  0.53890  0.50524  1.0000
  Ca  Ca606     1.0  0.33094  0.17398  0.26787  1.0000
  Ca  Ca607     1.0  0.19937  0.83448  0.44943  1.0000
  Ca  Ca608     1.0  0.03331  0.86142  0.71818  1.0000
  Ca  Ca609     1.0  0.15060  0.83484  0.84045  1.0000
  Ca  Ca610     1.0  0.99982  0.88931  0.88114  1.0000
  Ca  Ca611     1.0  0.54930  0.13785  0.96417  1.0000
  Ca  Ca612     1.0  0.64597  0.13773  0.81075  1.0000
  Ca  Ca613     1.0  0.57687  0.14519  0.74471  1.0000
  Ca  Ca614     1.0  0.16570  0.00176  0.31187  1.0000
  Ca  Ca615     1.0  0.23420  0.58684  0.73836  1.0000
  Ca  Ca616     1.0  0.53243  0.93156  0.22421  1.0000
  Ca  Ca617     1.0  0.52863  0.66001  0.09080  1.0000
  Ca  Ca618     1.0  0.67427  0.35566  0.45234  1.0000
  Ca  Ca619     1.0  0.56026  0.82300  0.11965  1.0000
  Ca  Ca620     1.0  0.63719  0.30997  0.68667  1.0000
  Ca  Ca621     1.0  0.63211  0.76019  0.07282  1.0000
  Ca  Ca622     1.0  0.47584  0.46123  0.78429  1.0000
  Ca  Ca623     1.0  0.65077  0.32683  0.52927  1.0000
  Ca  Ca624     1.0  0.14384  0.37121  0.63265  1.0000
  Ca  Ca625     1.0  0.17575  0.10918  0.62455  1.0000
  Ca  Ca626     1.0  0.72282  0.93166  0.54465  1.0000
  Ca  Ca627     1.0  0.01478  0.34620  0.52797  1.0000
  Ca  Ca628     1.0  0.69894  0.56522  0.84316  1.0000
  Ca  Ca629     1.0  0.80859  0.37200  0.60028  1.0000
  Ca  Ca630     1.0  0.53997  0.93084  0.81598  1.0000
  Ca  Ca631     1.0  0.61345  0.92111  0.76689  1.0000
  Ca  Ca632     1.0  0.82252  0.51039  0.70947  1.0000
  Ca  Ca633     1.0  0.24278  0.81497  0.63136  1.0000
  Ca  Ca634     1.0  0.05126  0.64481  0.81634  1.0000
  Ca  Ca635     1.0  0.18273  0.16753  0.87525  1.0000
  Ca  Ca636     1.0  0.63965  0.05764  0.17199  1.0000
  Ca  Ca637     1.0  0.60074  0.17394  0.17903  1.0000
  Ca  Ca638     1.0  0.66113  0.42140  0.08215  1.0000
  Ca  Ca639     1.0  0.62332  0.58648  0.90339  1.0000
  Ca  Ca640     1.0  0.03229  0.12592  0.49078  1.0000
  Ca  Ca641     1.0  0.18141  0.60737  0.08906  1.0000
  Ca  Ca642     1.0  0.79452  0.61790  0.44519  1.0000
  Ca  Ca643     1.0  0.31370  0.77274  0.71682  1.0000
  Ca  Ca644     1.0  0.95823  0.85211  0.81339  1.0000
  Ca  Ca645     1.0  0.70631  0.97455  0.34694  1.0000
  Ca  Ca646     1.0  0.37379  0.73874  0.45147  1.0000
  Ca  Ca647     1.0  0.46781  0.75143  0.16112  1.0000
  Ca  Ca648     1.0  0.75185  0.40873  0.56513  1.0000
  Ca  Ca649     1.0  0.05253  0.61076  0.99650  1.0000
  Ca  Ca650     1.0  0.08652  0.64222  0.58756  1.0000
  Ca  Ca651     1.0  0.04634  0.73428  0.90230  1.0000
  Ca  Ca652     1.0  0.11968  0.60565  0.04260  1.0000
  Ca  Ca653     1.0  0.58246  0.88253  0.14614  1.0000
  Ca  Ca654     1.0  0.48716  0.02428  0.98386  1.0000
  Ca  Ca655     1.0  0.94919  0.16212  0.31299  1.0000
  Ca  Ca656     1.0  0.10516  0.03553  0.69787  1.0000
  Ca  Ca657     1.0  0.76352  0.95451  0.10460  1.0000
  Ca  Ca658     1.0  0.56347  0.99952  0.61635  1.0000
  Ca  Ca659     1.0  0.99939  0.47498  0.62662  1.0000
  Ca  Ca660     1.0  0.47273  0.23026  0.77133  1.0000
  Ca  Ca661     1.0  0.37952  0.75603  0.64524  1.0000
  Ca  Ca662     1.0  0.65685  0.17040  0.44526  1.0000
  Ca  Ca663     1.0  0.78176  0.92999  0.30693  1.0000
  Ca  Ca664     1.0  0.18263  0.51790  0.65287  1.0000
  Ca  Ca665     1.0  0.60342  0.32265  0.37934  1.0000
  Ca  Ca666     1.0  0.20601  0.23816  0.95438  1.0000
  Ca  Ca667     1.0  0.97600  0.95656  0.08182  1.0000
  Ca  Ca668     1.0  0.85561  0.99804  0.86488  1.0000
  Ca  Ca669     1.0  0.40013  0.26775  0.08712  1.0000
  Ca  Ca670     1.0  0.56088  0.93741  0.59723  1.0000
  Ca  Ca671     1.0  0.64676  0.55065  0.53691  1.0000
  Ca  Ca672     1.0  0.55586  0.52637  0.66049  1.0000
  Ca  Ca673     1.0  0.12410  0.27071  0.82068  1.0000
  Ca  Ca674     1.0  0.82859  0.16908  0.99417  1.0000
  Ca  Ca675     1.0  0.11651  0.94108  0.85407  1.0000
  Ca  Ca676     1.0  0.75203  0.17141  0.30564  1.0000
  Ca  Ca677     1.0  0.06174  0.52534  0.27519  1.0000
  Ca  Ca678     1.0  0.86681  0.41678  0.02640  1.0000
  Ca  Ca679     1.0  0.63895  0.77337  0.34157  1.0000
  Ca  Ca680     1.0  0.26551  0.81921  0.49045  1.0000
  Ca  Ca681     1.0  0.02490  0.41071  0.82511  1.0000
  Ca  Ca682     1.0  0.29414  0.13693  0.63243  1.0000
  Ca  Ca683     1.0  0.76188  0.24419  0.32580  1.0000
  Ca  Ca684     1.0  0.83894  0.99090  0.19063  1.0000
  Ca  Ca685     1.0  0.92409  0.67411  0.72775  1.0000
  Ca  Ca686     1.0  0.96579  0.34801  0.67064  1.0000
  Ca  Ca687     1.0  0.45948  0.73978  0.06985  1.0000
  Ca  Ca688     1.0  0.99455  0.30333  0.29447  1.0000
  Ca  Ca689     1.0  0.53224  0.30460  0.26471  1.0000
  Ca  Ca690     1.0  0.03787  0.57718  0.58227  1.0000
  Ca  Ca691     1.0  0.40518  0.61336  0.24699  1.0000
  Ca  Ca692     1.0  0.44269  0.23157  0.85309  1.0000
  Ca  Ca693     1.0  0.11715  0.24206  0.45567  1.0000
  Ca  Ca694     1.0  0.68111  0.01790  0.88942  1.0000
  Ca  Ca695     1.0  0.04743  0.22924  0.17082  1.0000
  Ca  Ca696     1.0  0.55451  0.83094  0.72546  1.0000
  Ca  Ca697     1.0  0.55464  0.16799  0.03821  1.0000
  Ca  Ca698     1.0  0.39058  0.65021  0.01372  1.0000
  Ca  Ca699     1.0  0.28532  0.54716  0.57719  1.0000
  Ca  Ca700     1.0  0.53013  0.75938  0.71850  1.0000
  Ca  Ca701     1.0  0.01912  0.50788  0.67677  1.0000
  Ca  Ca702     1.0  0.54756  0.79485  0.65487  1.0000
  Ca  Ca703     1.0  0.64305  0.09933  0.40369  1.0000
  Ca  Ca704     1.0  0.19969  0.27080  0.76267  1.0000
  Ca  Ca705     1.0  0.88079  0.56179  0.54651  1.0000
  Ca  Ca706     1.0  0.44199  0.00684  0.29668  1.0000
  Ca  Ca707     1.0  0.42230  0.13414  0.78720  1.0000
  Ca  Ca708     1.0  0.22414  0.84723  0.19336  1.0000
  Ca  Ca709     1.0  0.22893  0.59725  0.43973  1.0000
  Ca  Ca710     1.0  0.91086  0.88819  0.44513  1.0000
  Ca  Ca711     1.0  0.00652  0.59958  0.41889  1.0000
  Ca  Ca712     1.0  0.60796  0.93753  0.66953  1.0000
  Ca  Ca713     1.0  0.12784  0.54059  0.93586  1.0000
  Ca  Ca714     1.0  0.21295  0.81970  0.04078  1.0000
  Ca  Ca715     1.0  0.28880  0.57867  0.01992  1.0000
  Ca  Ca716     1.0  0.22482  0.38769  0.37501  1.0000
  Ca  Ca717     1.0  0.08632  0.58037  0.12573  1.0000
  Ca  Ca718     1.0  0.71313  0.52346  0.22096  1.0000
  Ca  Ca719     1.0  0.25074  0.75406  0.51506  1.0000
  Ca  Ca720     1.0  0.68769  0.44660  0.92469  1.0000
  Ca  Ca721     1.0  0.14418  0.83395  0.67479  1.0000
  Ca  Ca722     1.0  0.42034  0.77333  0.21635  1.0000
  Ca  Ca723     1.0  0.73630  0.31159  0.26940  1.0000
  Ca  Ca724     1.0  0.15453  0.85585  0.16428  1.0000
  Ca  Ca725     1.0  0.08142  0.93468  0.93430  1.0000
  Ca  Ca726     1.0  0.81309  0.31814  0.82529  1.0000
  Ca  Ca727     1.0  0.50428  0.37720  0.48330  1.0000
  Ca  Ca728     1.0  0.00295  0.93601  0.16572  1.0000
  Ca  Ca729     1.0  0.83233  0.19238  0.22631  1.0000
  Ca  Ca730     1.0  0.64827  0.02472  0.98638  1.0000
  Ca  Ca731     1.0  0.07075  0.88841  0.85752  1.0000
  Ca  Ca732     1.0  0.38766  0.53144  0.15859  1.0000
  Ca  Ca733     1.0  0.95477  0.57057  0.48969  1.0000
  Ca  Ca734     1.0  0.47245  0.83729  0.97932  1.0000
  Ca  Ca735     1.0  0.50348  0.17326  0.25928  1.0000
  Ca  Ca736     1.0  0.43162  0.99259  0.38351  1.0000
  Ca  Ca737     1.0  0.25961  0.11743  0.46488  1.0000
  Ca  Ca738     1.0  0.66394  0.33723  0.21465  1.0000
  Ca  Ca739     1.0  0.28388  0.06588  0.60207  1.0000
  Ca  Ca740     1.0  0.27622  0.03495  0.09644  1.0000
  Ca  Ca741     1.0  0.43333  0.51497  0.94057  1.0000
  Ca  Ca742     1.0  0.43532  0.20830  0.05159  1.0000
  Ca  Ca743     1.0  0.10477  0.63715  0.44493  1.0000
  Ca  Ca744     1.0  0.80729  0.58217  0.06252  1.0000
  Ca  Ca745     1.0  0.01089  0.22561  0.72961  1.0000
  Ca  Ca746     1.0  0.84011  0.04925  0.83991  1.0000
  Ca  Ca747     1.0  0.35476  0.72663  0.58891  1.0000
  Ca  Ca748     1.0  0.55204  0.33099  0.58495  1.0000
  Ca  Ca749     1.0  0.11724  0.49597  0.86463  1.0000
  Ca  Ca750     1.0  0.75998  0.93599  0.80779  1.0000
  Ca  Ca751     1.0  0.81843  0.16148  0.29878  1.0000
  Ca  Ca752     1.0  0.35602  0.81905  0.22328  1.0000
  Ca  Ca753     1.0  0.94391  0.69968  0.85858  1.0000
  Ca  Ca754     1.0  0.84441  0.48565  0.09299  1.0000
  Ca  Ca755     1.0  0.52878  0.37808  0.19370  1.0000
  Ca  Ca756     1.0  0.50213  0.07156  0.06273  1.0000
  Ca  Ca757     1.0  0.97414  0.64293  0.81740  1.0000
  Ca  Ca758     1.0  0.06078  0.59055  0.47943  1.0000
  Ca  Ca759     1.0  0.39619  0.04220  0.64067  1.0000
  Ca  Ca760     1.0  0.19785  0.31504  0.50891  1.0000
  Ca  Ca761     1.0  0.31235  0.44651  0.53354  1.0000
  Ca  Ca762     1.0  0.81548  0.36008  0.40331  1.0000
  Ca  Ca763     1.0  0.76836  0.87966  0.97318  1.0000
  Ca  Ca764     1.0  0.81724  0.31217  0.98177  1.0000
  Ca  Ca765     1.0  0.65453  0.03426  0.30128  1.0000
  Ca  Ca766     1.0  0.07434  0.82086  0.79217  1.0000
  Ca  Ca767     1.0  0.45731  0.41818  0.60962  1.0000
  Ca  Ca768     1.0  0.08709  0.32080  0.75455  1.0000
  Ca  Ca769     1.0  0.18820  0.94810  0.47046  1.0000
  Ca  Ca770     1.0  0.99179  0.21482  0.06025  1.0000
  Ca  Ca771     1.0  0.03373  0.58307  0.82912  1.0000
  Ca  Ca772     1.0  0.57978  0.41971  0.32222  1.0000
  Ca  Ca773     1.0  0.88233  0.19806  0.86738  1.0000
  Ca  Ca774     1.0  0.61296  0.93370  0.10036  1.0000
  Ca  Ca775     1.0  0.46497  0.46356  0.24595  1.0000
  Ca  Ca776     1.0  0.98801  0.47166  0.06215  1.0000
  Ca  Ca777     1.0  0.81803  0.20921  0.53867  1.0000
  Ca  Ca778     1.0  0.48527  0.55044  0.88428  1.0000
  Ca  Ca779     1.0  0.34150  0.43336  0.90880  1.0000
  Ca  Ca780     1.0  0.60238  0.52106  0.46319  1.0000
  Ca  Ca781     1.0  0.17565  0.89571  0.09798  1.0000
  Ca  Ca782     1.0  0.24700  0.65842  0.70411  1.0000
  Ca  Ca783     1.0  0.81366  0.92383  0.46484  1.0000
  Ca  Ca784     1.0  0.29292  0.99378  0.60301  1.0000
  Ca  Ca785     1.0  0.84053  0.65137  0.06394  1.0000
  Ca  Ca786     1.0  0.14734  0.62354  0.53437  1.0000
  Ca  Ca787     1.0  0.15444  0.51510  0.30136  1.0000
  Ca  Ca788     1.0  0.21254  0.66514  0.90251  1.0000
  Ca  Ca789     1.0  0.73831  0.45317  0.50346  1.0000
  Ca  Ca790     1.0  0.24074  0.68652  0.36776  1.0000
  Ca  Ca791     1.0  0.84456  0.25529  0.79691  1.0000
  Ca  Ca792     1.0  0.49433  0.78547  0.78699  1.0000
  Ca  Ca793     1.0  0.35507  0.87206  0.82821  1.0000
  Ca  Ca794     1.0  0.99570  0.03314  0.42020  1.0000
  Ca  Ca795     1.0  0.83104  0.12890  0.18884  1.0000
  Ca  Ca796     1.0  0.81023  0.92254  0.21613  1.0000
  Ca  Ca797     1.0  0.95811  0.68914  0.05493  1.0000
  Ca  Ca798     1.0  0.13738  0.96056  0.07749  1.0000
  Ca  Ca799     1.0  0.12725  0.06530  0.53733  1.0000
  Ca  Ca800     1.0  0.96991  0.05937  0.51470  1.0000
  Ca  Ca801     1.0  0.72776  0.57501  0.35045  1.0000
  Ca  Ca802     1.0  0.78922  0.95741  0.96256  1.0000
  Ca  Ca803     1.0  0.82233  0.45040  0.47449  1.0000
  Ca  Ca804     1.0  0.21311  0.85807  0.86560  1.0000
  Ca  Ca805     1.0  0.24501  0.31848  0.31981  1.0000
  Ca  Ca806     1.0  0.63073  0.48189  0.84852  1.0000
  Ca  Ca807     1.0  0.93076  0.75021  0.71763  1.0000
  Ca  Ca808     1.0  0.96533  0.58219  0.68543  1.0000
  Ca  Ca809     1.0  0.24403  0.72469  0.72441  1.0000
  Ca  Ca810     1.0  0.86981  0.78477  0.82032  1.0000
  Ca  Ca811     1.0  0.92755  0.84145  0.71616  1.0000
  Ca  Ca812     1.0  0.06941  0.89691  0.78614  1.0000
  Ca  Ca813     1.0  0.68340  0.55284  0.93594  1.0000
  Ca  Ca814     1.0  0.38386  0.11428  0.12094  1.0000
  Ca  Ca815     1.0  0.09639  0.96540  0.58721  1.0000
  Ca  Ca816     1.0  0.85617  0.52912  0.03199  1.0000
  Ca  Ca817     1.0  0.67173  0.33682  0.73411  1.0000
  Ca  Ca818     1.0  0.97743  0.88438  0.96998  1.0000
  Ca  Ca819     1.0  0.38737  0.39692  0.62188  1.0000
  Ca  Ca820     1.0  0.24101  0.55848  0.36614  1.0000
  Ca  Ca821     1.0  0.43319  0.80357  0.79799  1.0000
  Ca  Ca822     1.0  0.01772  0.27397  0.54154  1.0000
  Ca  Ca823     1.0  0.11435  0.80713  0.19290  1.0000
  Ca  Ca824     1.0  0.45152  0.60961  0.65357  1.0000
  Ca  Ca825     1.0  0.89773  0.15745  0.28076  1.0000
  Ca  Ca826     1.0  0.78699  0.46750  0.28991  1.0000
  Ca  Ca827     1.0  0.46203  0.39564  0.13385  1.0000
  Ca  Ca828     1.0  0.05421  0.52742  0.16760  1.0000
  Ca  Ca829     1.0  0.75918  0.03709  0.88944  1.0000
  Ca  Ca830     1.0  0.41945  0.57924  0.10856  1.0000
  Ca  Ca831     1.0  0.44657  0.10124  0.00674  1.0000
  Ca  Ca832     1.0  0.72519  0.35049  0.17848  1.0000
  Ca  Ca833     1.0  0.66481  0.02600  0.80652  1.0000
  Ca  Ca834     1.0  0.25805  0.62546  0.11293  1.0000
  Ca  Ca835     1.0  0.04314  0.89312  0.66509  1.0000
  Ca  Ca836     1.0  0.28692  0.97533  0.11799  1.0000
  Ca  Ca837     1.0  0.25152  0.06676  0.94010  1.0000
  Ca  Ca838     1.0  0.14375  0.44267  0.15059  1.0000
  Ca  Ca839     1.0  0.81797  0.47237  0.93508  1.0000
  Ca  Ca840     1.0  0.40344  0.72901  0.53417  1.0000
  Ca  Ca841     1.0  0.07166  0.45493  0.25123  1.0000
  Ca  Ca842     1.0  0.84198  0.16296  0.62922  1.0000
  Ca  Ca843     1.0  0.18606  0.24065  0.62128  1.0000
  Ca  Ca844     1.0  0.44643  0.01084  0.46518  1.0000
  Ca  Ca845     1.0  0.10396  0.10859  0.62297  1.0000
  Ca  Ca846     1.0  0.51506  0.71032  0.88049  1.0000
  Ca  Ca847     1.0  0.18483  0.43111  0.99665  1.0000
  Ca  Ca848     1.0  0.36270  0.69304  0.82279  1.0000
  Ca  Ca849     1.0  0.70329  0.57980  0.68871  1.0000
  Ca  Ca850     1.0  0.89070  0.63825  0.22796  1.0000
  Ca  Ca851     1.0  0.44606  0.73676  0.32469  1.0000
  Ca  Ca852     1.0  0.03778  0.50961  0.54777  1.0000
  Ca  Ca853     1.0  0.52713  0.68694  0.55092  1.0000
  Ca  Ca854     1.0  0.87240  0.91675  0.99536  1.0000
  Ca  Ca855     1.0  0.89159  0.56976  0.19812  1.0000
  Ca  Ca856     1.0  0.66288  0.14552  0.99866  1.0000
  Ca  Ca857     1.0  0.66081  0.32294  0.29571  1.0000
  Ca  Ca858     1.0  0.68480  0.15980  0.62944  1.0000
  Ca  Ca859     1.0  0.45827  0.12019  0.49405  1.0000
  Ca  Ca860     1.0  0.04048  0.40243  0.19035  1.0000
  Ca  Ca861     1.0  0.65622  0.36277  0.13102  1.0000
  Ca  Ca862     1.0  0.26557  0.90111  0.11607  1.0000
  Ca  Ca863     1.0  0.51216  0.72893  0.61875  1.0000
  Ca  Ca864     1.0  0.74780  0.11195  0.17726  1.0000
  Ca  Ca865     1.0  0.19621  0.67674  0.99861  1.0000
  Ca  Ca866     1.0  0.14902  0.18892  0.29284  1.0000
  Ca  Ca867     1.0  0.43205  0.19712  0.71558  1.0000
  Ca  Ca868     1.0  0.91708  0.28896  0.94422  1.0000
  Ca  Ca869     1.0  0.68889  0.58494  0.01070  1.0000
  Ca  Ca870     1.0  0.76091  0.86757  0.27635  1.0000
  Ca  Ca871     1.0  0.05863  0.25906  0.78577  1.0000
  Ca  Ca872     1.0  0.80459  0.83216  0.19279  1.0000
  Ca  Ca873     1.0  0.77196  0.88551  0.10691  1.0000
  Ca  Ca874     1.0  0.44448  0.76617  0.98945  1.0000
  Ca  Ca875     1.0  0.66935  0.05814  0.63505  1.0000
  Ca  Ca876     1.0  0.15641  0.18002  0.97198  1.0000
  Ca  Ca877     1.0  0.15094  0.62106  0.98673  1.0000
  Ca  Ca878     1.0  0.94796  0.78274  0.84102  1.0000
  Ca  Ca879     1.0  0.36018  0.92363  0.77164  1.0000
  Ca  Ca880     1.0  0.31043  0.90379  0.07044  1.0000
  Ca  Ca881     1.0  0.35434  0.71630  0.72516  1.0000
  Ca  Ca882     1.0  0.17530  0.95756  0.15330  1.0000
  Ca  Ca883     1.0  0.52143  0.55545  0.38095  1.0000
  Ca  Ca884     1.0  0.13582  0.60322  0.33199  1.0000
  Ca  Ca885     1.0  0.84478  0.51002  0.79387  1.0000
  Ca  Ca886     1.0  0.17166  0.18192  0.61962  1.0000
  Ca  Ca887     1.0  0.34438  0.63346  0.31503  1.0000
  Ca  Ca888     1.0  0.57833  0.37469  0.92871  1.0000
  Ca  Ca889     1.0  0.90144  0.88594  0.20674  1.0000
  Ca  Ca890     1.0  0.23130  0.25441  0.08731  1.0000
  Ca  Ca891     1.0  0.67554  0.59964  0.60477  1.0000
  Ca  Ca892     1.0  0.24325  0.40290  0.52920  1.0000
  Ca  Ca893     1.0  0.78459  0.90326  0.53256  1.0000
  Ca  Ca894     1.0  0.95688  0.19179  0.93118  1.0000
  Ca  Ca895     1.0  0.97761  0.65375  0.47490  1.0000
  Ca  Ca896     1.0  0.85371  0.93442  0.67287  1.0000
  Ca  Ca897     1.0  0.46022  0.57541  0.49870  1.0000
  Ca  Ca898     1.0  0.57438  0.90512  0.44895  1.0000
  Ca  Ca899     1.0  0.22222  0.46077  0.78207  1.0000
  Ca  Ca900     1.0  0.31393  0.97211  0.52800  1.0000
  Ca  Ca901     1.0  0.54873  0.06119  0.65149  1.0000
  Ca  Ca902     1.0  0.89347  0.52839  0.93722  1.0000
  Ca  Ca903     1.0  0.36856  0.41098  0.83488  1.0000
  Ca  Ca904     1.0  0.31621  0.25353  0.87426  1.0000
  Ca  Ca905     1.0  0.42852  0.30137  0.87433  1.0000
  Ca  Ca906     1.0  0.33792  0.09252  0.76982  1.0000
  Ca  Ca907     1.0  0.43073  0.61240  0.42255  1.0000
  Ca  Ca908     1.0  0.25434  0.46929  0.57380  1.0000
  Ca  Ca909     1.0  0.14053  0.62698  0.15554  1.0000
  Ca  Ca910     1.0  0.55852  0.32561  0.10458  1.0000
  Ca  Ca911     1.0  0.26119  0.35774  0.78519  1.0000
  Ca  Ca912     1.0  0.49846  0.63143  0.59126  1.0000
  Ca  Ca913     1.0  0.33946  0.06191  0.85299  1.0000
  Ca  Ca914     1.0  0.18306  0.16695  0.79496  1.0000
  Ca  Ca915     1.0  0.97923  0.71284  0.92482  1.0000
  Ca  Ca916     1.0  0.05553  0.87632  0.55188  1.0000
  Ca  Ca917     1.0  0.27368  0.42410  0.66499  1.0000
  Ca  Ca918     1.0  0.90745  0.63134  0.59281  1.0000
  Ca  Ca919     1.0  0.02477  0.84235  0.31386  1.0000
  Ca  Ca920     1.0  0.79212  0.25359  0.96146  1.0000
  Ca  Ca921     1.0  0.39411  0.65159  0.68944  1.0000
  Ca  Ca922     1.0  0.59278  0.14516  0.10270  1.0000
  Ca  Ca923     1.0  0.19668  0.23184  0.30387  1.0000
  Ca  Ca924     1.0  0.90399  0.37726  0.87620  1.0000
  Ca  Ca925     1.0  0.92728  0.14919  0.86760  1.0000
  Ca  Ca926     1.0  0.75986  0.51669  0.48917  1.0000
  Ca  Ca927     1.0  0.53990  0.68374  0.71892  1.0000
  Ca  Ca928     1.0  0.36893  0.60689  0.95540  1.0000
  Ca  Ca929     1.0  0.14930  0.32166  0.80626  1.0000
  Ca  Ca930     1.0  0.48354  0.34420  0.08118  1.0000
  Ca  Ca931     1.0  0.16617  0.66418  0.25387  1.0000
  Ca  Ca932     1.0  0.99830  0.59673  0.94784  1.0000
  Ca  Ca933     1.0  0.12583  0.47101  0.35154  1.0000
  Ca  Ca934     1.0  0.75609  0.65326  0.49351  1.0000
  Ca  Ca935     1.0  0.04828  0.27906  0.61632  1.0000
  Ca  Ca936     1.0  0.86030  0.83008  0.30204  1.0000
  Ca  Ca937     1.0  0.51765  0.53964  0.73661  1.0000
  Ca  Ca938     1.0  0.85190  0.94878  0.79991  1.0000
  Ca  Ca939     1.0  0.44006  0.03323  0.04274  1.0000
  Ca  Ca940     1.0  0.44529  0.42959  0.32204  1.0000
  Ca  Ca941     1.0  0.26648  0.13268  0.79200  1.0000
  Ca  Ca942     1.0  0.26863  0.64516  0.01085  1.0000
  Ca  Ca943     1.0  0.43156  0.25216  0.92734  1.0000
  Ca  Ca944     1.0  0.16170  0.39921  0.49149  1.0000
  Ca  Ca945     1.0  0.52782  0.34824  0.71359  1.0000
  Ca  Ca946     1.0  0.10613  0.21650  0.17535  1.0000
  Ca  Ca947     1.0  0.26789  0.21846  0.04210  1.0000
  Ca  Ca948     1.0  0.43192  0.36162  0.56042  1.0000
  Ca  Ca949     1.0  0.63956  0.98400  0.63658  1.0000
  Ca  Ca950     1.0  0.94442  0.05741  0.68420  1.0000
  Ca  Ca951     1.0  0.84938  0.40853  0.64897  1.0000
  Ca  Ca952     1.0  0.71757  0.59101  0.19652  1.0000
  Ca  Ca953     1.0  0.14257  0.74694  0.64025  1.0000
  Ca  Ca954     1.0  0.89299  0.13368  0.91747  1.0000
  Ca  Ca955     1.0  0.29855  0.66353  0.76688  1.0000
  Ca  Ca956     1.0  0.35852  0.01459  0.57799  1.0000
  Ca  Ca957     1.0  0.76333  0.43280  0.42751  1.0000
  Ca  Ca958     1.0  0.43923  0.39716  0.82730  1.0000
  Ca  Ca959     1.0  0.13480  0.90275  0.46410  1.0000
  Ca  Ca960     1.0  0.51854  0.64698  0.90079  1.0000
  Ca  Ca961     1.0  0.49391  0.11509  0.23054  1.0000
  Ca  Ca962     1.0  0.07627  0.34338  0.19395  1.0000
  Ca  Ca963     1.0  0.98628  0.13757  0.98579  1.0000
  Ca  Ca964     1.0  0.15558  0.84855  0.98517  1.0000
  Ca  Ca965     1.0  0.94348  0.18251  0.54577  1.0000
  Ca  Ca966     1.0  0.54058  0.12569  0.39396  1.0000
  Ca  Ca967     1.0  0.82148  0.19526  0.74425  1.0000
  Ca  Ca968     1.0  0.94271  0.69681  0.36379  1.0000
  Ca  Ca969     1.0  0.51539  0.62016  0.76133  1.0000
  Ca  Ca970     1.0  0.65991  0.20468  0.23128  1.0000
  Ca  Ca971     1.0  0.55407  0.82980  0.46529  1.0000
  Ca  Ca972     1.0  0.48945  0.01613  0.15635  1.0000
  Ca  Ca973     1.0  0.95812  0.55097  0.29281  1.0000
  Ca  Ca974     1.0  0.55865  0.38783  0.83788  1.0000
  Ca  Ca975     1.0  0.45439  0.54334  0.41548  1.0000
  Ca  Ca976     1.0  0.45352  0.30539  0.74299  1.0000
  Ca  Ca977     1.0  0.37394  0.19240  0.84301  1.0000
  Ca  Ca978     1.0  0.33316  0.81610  0.67500  1.0000
  Ca  Ca979     1.0  0.55927  0.96069  0.88773  1.0000
  Ca  Ca980     1.0  0.42559  0.44691  0.86961  1.0000
  Ca  Ca981     1.0  0.76453  0.74395  0.76452  1.0000
  Ca  Ca982     1.0  0.86373  0.77128  0.62537  1.0000
  Ca  Ca983     1.0  0.47851  0.02849  0.66959  1.0000
  Ca  Ca984     1.0  0.97358  0.95572  0.90039  1.0000
  Ca  Ca985     1.0  0.62051  0.72217  0.18025  1.0000
  Ca  Ca986     1.0  0.95323  0.12518  0.66799  1.0000
  Ca  Ca987     1.0  0.56681  0.82291  0.19503  1.0000
  Ca  Ca988     1.0  0.90648  0.06781  0.55385  1.0000
  Ca  Ca989     1.0  0.00989  0.89199  0.47099  1.0000
  Ca  Ca990     1.0  0.59670  0.03983  0.22657  1.0000
  Ca  Ca991     1.0  0.19918  0.89498  0.41036  1.0000
  Ca  Ca992     1.0  0.63979  0.27495  0.32657  1.0000
  Ca  Ca993     1.0  0.13322  0.69385  0.52947  1.0000
  Ca  Ca994     1.0  0.15708  0.23775  0.69342  1.0000
  Ca  Ca995     1.0  0.89341  0.43183  0.46920  1.0000
  Ca  Ca996     1.0  0.34446  0.60828  0.68682  1.0000
  Ca  Ca997     1.0  0.77578  0.79391  0.34027  1.0000
  Ca  Ca998     1.0  0.95572  0.39398  0.56710  1.0000
  Ca  Ca999     1.0  0.53275  0.20625  0.13385  1.0000
  Ca  Ca1000    1.0  0.42300  0.21724  0.35899  1.0000
  Ca  Ca1001    1.0  0.54956  0.51997  0.42839  1.0000
  Ca  Ca1002    1.0  0.25061  0.18897  0.15726  1.0000
  Ca  Ca1003    1.0  0.55953  0.59965  0.96012  1.0000
  Ca  Ca1004    1.0  0.41562  0.53036  0.33819  1.0000
  Ca  Ca1005    1.0  0.45649  0.55303  0.99273  1.0000
  Ca  Ca1006    1.0  0.12247  0.36768  0.34253  1.0000
  Ca  Ca1007    1.0  0.17439  0.76959  0.81415  1.0000
  Ca  Ca1008    1.0  0.99542  0.60972  0.54879  1.0000
  Ca  Ca1009    1.0  0.24780  0.20240  0.88582  1.0000
  Ca  Ca1010    1.0  0.37075  0.58943  0.04468  1.0000
  Ca  Ca1011    1.0  0.75609  0.59999  0.13312  1.0000
  Ca  Ca1012    1.0  0.68740  0.57243  0.47567  1.0000
  Ca  Ca1013    1.0  0.39598  0.27639  0.47729  1.0000
  Ca  Ca1014    1.0  0.43024  0.38239  0.25308  1.0000
  Ca  Ca1015    1.0  0.12885  0.27424  0.01700  1.0000
  Ca  Ca1016    1.0  0.65227  0.98514  0.16431  1.0000
  Ca  Ca1017    1.0  0.40750  0.86928  0.98803  1.0000
  Ca  Ca1018    1.0  0.69535  0.89165  0.35520  1.0000
  Ca  Ca1019    1.0  0.92310  0.67366  0.17907  1.0000
  Ca  Ca1020    1.0  0.81939  0.54992  0.52902  1.0000
  Ca  Ca1021    1.0  0.04893  0.50733  0.95613  1.0000
  Ca  Ca1022    1.0  0.74991  0.67568  0.17245  1.0000
  Ca  Ca1023    1.0  0.37456  0.28091  0.74294  1.0000
  Ca  Ca1024    1.0  0.15200  0.30790  0.94414  1.0000
  Ca  Ca1025    1.0  0.32268  0.33217  0.31343  1.0000
  Ca  Ca1026    1.0  0.90179  0.55074  0.10884  1.0000
  Ca  Ca1027    1.0  0.63702  0.62995  0.97275  1.0000
  Ca  Ca1028    1.0  0.57426  0.19633  0.30428  1.0000
  Ca  Ca1029    1.0  0.89919  0.97403  0.37462  1.0000
  Ca  Ca1030    1.0  0.11065  0.86438  0.74544  1.0000
  Ca  Ca1031    1.0  0.71296  0.87699  0.90717  1.0000
  Ca  Ca1032    1.0  0.04918  0.25126  0.85678  1.0000
  Ca  Ca1033    1.0  0.34709  0.41888  0.40978  1.0000
  Ca  Ca1034    1.0  0.12709  0.41722  0.89436  1.0000
  Ca  Ca1035    1.0  0.10446  0.84163  0.34674  1.0000
  Ca  Ca1036    1.0  0.64190  0.21072  0.16732  1.0000
  Ca  Ca1037    1.0  0.26403  0.42912  0.75066  1.0000
  Ca  Ca1038    1.0  0.03641  0.31354  0.71500  1.0000
  Ca  Ca1039    1.0  0.97747  0.61916  0.63184  1.0000
  Ca  Ca1040    1.0  0.12033  0.08108  0.37589  1.0000
  Ca  Ca1041    1.0  0.63234  0.50175  0.38807  1.0000
  Ca  Ca1042    1.0  0.43909  0.85218  0.06163  1.0000
  Ca  Ca1043    1.0  0.32709  0.63990  0.16566  1.0000
  Ca  Ca1044    1.0  0.11148  0.69872  0.95848  1.0000
  Ca  Ca1045    1.0  0.59355  0.19747  0.52619  1.0000
  Ca  Ca1046    1.0  0.16522  0.76412  0.99553  1.0000
  Ca  Ca1047    1.0  0.63986  0.19454  0.84856  1.0000
  Ca  Ca1048    1.0  0.53480  0.99968  0.25874  1.0000
  Ca  Ca1049    1.0  0.57743  0.58632  0.77397  1.0000
  Ca  Ca1050    1.0  0.50214  0.80304  0.85256  1.0000
  Ca  Ca1051    1.0  0.16906  0.53327  0.50012  1.0000
  Ca  Ca1052    1.0  0.33280  0.75408  0.30094  1.0000
  Ca  Ca1053    1.0  0.94730  0.65859  0.66493  1.0000
  Ca  Ca1054    1.0  0.63321  0.60996  0.68093  1.0000
  Ca  Ca1055    1.0  0.32987  0.49531  0.84203  1.0000
  Ca  Ca1056    1.0  0.63768  0.60289  0.44700  1.0000
  Ca  Ca1057    1.0  0.59166  0.42748  0.45448  1.0000
  Ca  Ca1058    1.0  0.25051  0.95295  0.57639  1.0000
  Ca  Ca1059    1.0  0.13449  0.03759  0.87085  1.0000
  Ca  Ca1060    1.0  0.09643  0.51861  0.06965  1.0000
  Ca  Ca1061    1.0  0.74083  0.86493  0.15703  1.0000
  Ca  Ca1062    1.0  0.32556  0.80639  0.00635  1.0000
  Ca  Ca1063    1.0  0.86265  0.35035  0.48301  1.0000
  Ca  Ca1064    1.0  0.67545  0.89060  0.17681  1.0000
  Ca  Ca1065    1.0  0.56425  0.25073  0.76759  1.0000
  Ca  Ca1066    1.0  0.21281  0.61702  0.57821  1.0000
  Ca  Ca1067    1.0  0.28395  0.67762  0.09379  1.0000
  Ca  Ca1068    1.0  0.04839  0.75213  0.10509  1.0000
  Ca  Ca1069    1.0  0.42802  0.93643  0.32948  1.0000
  Ca  Ca1070    1.0  0.14466  0.11342  0.21342  1.0000
  Ca  Ca1071    1.0  0.90835  0.04015  0.38378  1.0000
  Ca  Ca1072    1.0  0.23903  0.50809  0.07585  1.0000
  Ca  Ca1073    1.0  0.64589  0.17256  0.74142  1.0000
  Ca  Ca1074    1.0  0.75981  0.93601  0.59845  1.0000
  Ca  Ca1075    1.0  0.25449  0.01496  0.18140  1.0000
  Ca  Ca1076    1.0  0.26931  0.67846  0.46526  1.0000
  Ca  Ca1077    1.0  0.46350  0.33575  0.94122  1.0000
  Ca  Ca1078    1.0  0.67479  0.24731  0.44057  1.0000
  Ca  Ca1079    1.0  0.30566  0.09910  0.22439  1.0000
  Ca  Ca1080    1.0  0.19502  0.51452  0.93460  1.0000
  Ca  Ca1081    1.0  0.08290  0.74634  0.48779  1.0000
  Ca  Ca1082    1.0  0.88296  0.30341  0.12821  1.0000
  Ca  Ca1083    1.0  0.03939  0.66313  0.02893  1.0000
  Ca  Ca1084    1.0  0.35757  0.82437  0.35063  1.0000
  Ca  Ca1085    1.0  0.70766  0.03793  0.20436  1.0000
  Ca  Ca1086    1.0  0.97004  0.64613  0.13312  1.0000
  Ca  Ca1087    1.0  0.02194  0.67745  0.88157  1.0000
  Ca  Ca1088    1.0  0.95325  0.57983  0.99498  1.0000
  Ca  Ca1089    1.0  0.04859  0.00749  0.63921  1.0000
  Ca  Ca1090    1.0  0.74241  0.49863  0.87596  1.0000
  Ca  Ca1091    1.0  0.60280  0.83764  0.35400  1.0000
  Ca  Ca1092    1.0  0.94802  0.07604  0.27296  1.0000
  Ca  Ca1093    1.0  0.40411  0.08430  0.85929  1.0000
  Ca  Ca1094    1.0  0.28883  0.70850  0.57455  1.0000
  Ca  Ca1095    1.0  0.84127  0.87958  0.81267  1.0000
  Ca  Ca1096    1.0  0.28292  0.89016  0.58237  1.0000
  Ca  Ca1097    1.0  0.05287  0.89176  0.38916  1.0000
  Ca  Ca1098    1.0  0.16553  0.56174  0.42434  1.0000
  Ca  Ca1099    1.0  0.62294  0.55816  0.71372  1.0000
  Ca  Ca1100    1.0  0.62717  0.37280  0.61207  1.0000
  Ca  Ca1101    1.0  0.31064  0.55421  0.07752  1.0000
  Ca  Ca1102    1.0  0.45232  0.84737  0.20471  1.0000
  Ca  Ca1103    1.0  0.00666  0.05779  0.77389  1.0000
  Ca  Ca1104    1.0  0.41146  0.49989  0.57180  1.0000
  Ca  Ca1105    1.0  0.72606  0.87102  0.58823  1.0000
  Ca  Ca1106    1.0  0.64682  0.81656  0.95029  1.0000
  Ca  Ca1107    1.0  0.12840  0.39137  0.23489  1.0000
  Ca  Ca1108    1.0  0.41031  0.44065  0.68122  1.0000
  Ca  Ca1109    1.0  0.44968  0.51030  0.20584  1.0000
  Ca  Ca1110    1.0  0.86374  0.05848  0.27444  1.0000
  Ca  Ca1111    1.0  0.31063  0.62532  0.26095  1.0000
  Ca  Ca1112    1.0  0.78705  0.71031  0.45447  1.0000
  Ca  Ca1113    1.0  0.72683  0.32728  0.61328  1.0000
  Ca  Ca1114    1.0  0.31240  0.73676  0.87242  1.0000
  Ca  Ca1115    1.0  0.36920  0.08101  0.32286  1.0000
  Ca  Ca1116    1.0  0.83158  0.77236  0.52303  1.0000
  Ca  Ca1117    1.0  0.22534  0.32750  0.05667  1.0000
  Ca  Ca1118    1.0  0.24959  0.42954  0.00309  1.0000
  Ca  Ca1119    1.0  0.76855  0.04677  0.55417  1.0000
  Ca  Ca1120    1.0  0.75181  0.95065  0.70860  1.0000
  Ca  Ca1121    1.0  0.88192  0.96934  0.12017  1.0000
  Ca  Ca1122    1.0  0.88306  0.00406  0.56602  1.0000
  Ca  Ca1123    1.0  0.53430  0.20798  0.45515  1.0000
  Ca  Ca1124    1.0  0.45904  0.32322  0.36909  1.0000
  Ca  Ca1125    1.0  0.05185  0.81910  0.86681  1.0000
  Ca  Ca1126    1.0  0.26837  0.29915  0.19495  1.0000
  Ca  Ca1127    1.0  0.48359  0.92786  0.14485  1.0000
  Ca  Ca1128    1.0  0.06717  0.08483  0.75166  1.0000
  Ca  Ca1129    1.0  0.69421  0.08450  0.56918  1.0000
  Ca  Ca1130    1.0  0.53675  0.40646  0.54291  1.0000
  Ca  Ca1131    1.0  0.67658  0.96042  0.95220  1.0000
  Ca  Ca1132    1.0  0.01248  0.60309  0.75728  1.0000
  Ca  Ca1133    1.0  0.29719  0.91878  0.82552  1.0000
  Ca  Ca1134    1.0  0.40604  0.51995  0.49153  1.0000
  Ca  Ca1135    1.0  0.70018  0.22943  0.82458  1.0000
  Ca  Ca1136    1.0  0.04545  0.16678  0.21499  1.0000
  Ca  Ca1137    1.0  0.12106  0.71268  0.09554  1.0000
  Ca  Ca1138    1.0  0.61524  0.07610  0.68476  1.0000
  Ca  Ca1139    1.0  0.57513  0.72869  0.96102  1.0000
  Ca  Ca1140    1.0  0.27840  0.75441  0.43486  1.0000
  Ca  Ca1141    1.0  0.26407  0.89945  0.64725  1.0000
  Ca  Ca1142    1.0  0.53857  0.11310  0.04775  1.0000
  Ca  Ca1143    1.0  0.62263  0.26354  0.56948  1.0000
  Ca  Ca1144    1.0  0.78535  0.46271  0.77028  1.0000
  Ca  Ca1145    1.0  0.42558  0.16669  0.43094  1.0000
  Ca  Ca1146    1.0  0.62545  0.69521  0.89082  1.0000
  Ca  Ca1147    1.0  0.49134  0.91440  0.97593  1.0000
  Ca  Ca1148    1.0  0.84836  0.62292  0.12004  1.0000
  Ca  Ca1149    1.0  0.89825  0.93937  0.87833  1.0000
  Ca  Ca1150    1.0  0.45827  0.33127  0.65282  1.0000
  Ca  Ca1151    1.0  0.66705  0.23540  0.11071  1.0000
  Ca  Ca1152    1.0  0.13158  0.12846  0.99862  1.0000
  Ca  Ca1153    1.0  0.65030  0.48189  0.08560  1.0000
  Ca  Ca1154    1.0  0.89911  0.87981  0.63394  1.0000
  Ca  Ca1155    1.0  0.76252  0.74452  0.52557  1.0000
  Ca  Ca1156    1.0  0.60755  0.27716  0.49455  1.0000
  Ca  Ca1157    1.0  0.01506  0.36073  0.01438  1.0000
  Ca  Ca1158    1.0  0.25670  0.69926  0.63939  1.0000
  Ca  Ca1159    1.0  0.87278  0.82327  0.47107  1.0000
  Ca  Ca1160    1.0  0.05872  0.14234  0.82586  1.0000
  Ca  Ca1161    1.0  0.19727  0.53526  0.00760  1.0000
  Ca  Ca1162    1.0  0.02645  0.11984  0.68479  1.0000
  Ca  Ca1163    1.0  0.13747  0.49146  0.52544  1.0000
  Ca  Ca1164    1.0  0.51686  0.26292  0.52480  1.0000
  Ca  Ca1165    1.0  0.90383  0.94947  0.28854  1.0000
  Ca  Ca1166    1.0  0.16845  0.40005  0.37228  1.0000
  Ca  Ca1167    1.0  0.67827  0.31249  0.38210  1.0000
  Ca  Ca1168    1.0  0.83242  0.11784  0.38907  1.0000
  Ca  Ca1169    1.0  0.63445  0.47217  0.54557  1.0000
  Ca  Ca1170    1.0  0.92235  0.12362  0.51090  1.0000
  Ca  Ca1171    1.0  0.92176  0.09575  0.34109  1.0000
  Ca  Ca1172    1.0  0.76734  0.54773  0.80258  1.0000
  Ca  Ca1173    1.0  0.12179  0.86956  0.90429  1.0000
  Ca  Ca1174    1.0  0.94117  0.45819  0.95432  1.0000
  Ca  Ca1175    1.0  0.83533  0.02779  0.69333  1.0000
  Ca  Ca1176    1.0  0.46245  0.12652  0.39839  1.0000
  Ca  Ca1177    1.0  0.50231  0.32529  0.85495  1.0000
  Ca  Ca1178    1.0  0.95983  0.91453  0.64497  1.0000
  Ca  Ca1179    1.0  0.69088  0.35148  0.86550  1.0000
  Ca  Ca1180    1.0  0.25685  0.93531  0.16911  1.0000
  Ca  Ca1181    1.0  0.88925  0.72787  0.77432  1.0000
  Ca  Ca1182    1.0  0.45721  0.65174  0.02108  1.0000
  Ca  Ca1183    1.0  0.57459  0.97633  0.43499  1.0000
  Ca  Ca1184    1.0  0.41831  0.97191  0.67889  1.0000
  Ca  Ca1185    1.0  0.90911  0.97393  0.79136  1.0000
  Ca  Ca1186    1.0  0.66183  0.81661  0.64818  1.0000
  Ca  Ca1187    1.0  0.26787  0.51987  0.76614  1.0000
  Ca  Ca1188    1.0  0.32939  0.40064  0.75551  1.0000
  Ca  Ca1189    1.0  0.29146  0.79852  0.30421  1.0000
  Ca  Ca1190    1.0  0.57670  0.46559  0.63552  1.0000
  Ca  Ca1191    1.0  0.55135  0.26874  0.68153  1.0000
  Ca  Ca1192    1.0  0.51053  0.86670  0.61131  1.0000
  Ca  Ca1193    1.0  0.60125  0.24206  0.26602  1.0000
  Ca  Ca1194    1.0  0.18996  0.40322  0.16175  1.0000
  Ca  Ca1195    1.0  0.61081  0.69073  0.74196  1.0000
  Ca  Ca1196    1.0  0.53759  0.24754  0.21871  1.0000
  Ca  Ca1197    1.0  0.78892  0.50218  0.23280  1.0000
  Ca  Ca1198    1.0  0.90896  0.68812  0.47752  1.0000
  Ca  Ca1199    1.0  0.24370  0.42152  0.84797  1.0000
  Ca  Ca1200    1.0  0.22509  0.28661  0.83266  1.0000
  Ca  Ca1201    1.0  0.22860  0.46810  0.42003  1.0000
  Ca  Ca1202    1.0  0.81156  0.57192  0.83929  1.0000
  Ca  Ca1203    1.0  0.73152  0.10748  0.86125  1.0000
  Ca  Ca1204    1.0  0.03670  0.01192  0.06195  1.0000
  Ca  Ca1205    1.0  0.24403  0.16160  0.25894  1.0000
  Ca  Ca1206    1.0  0.82930  0.49049  0.59552  1.0000
  Ca  Ca1207    1.0  0.21858  0.52757  0.72452  1.0000
  Ca  Ca1208    1.0  0.79388  0.38182  0.73453  1.0000
  Ca  Ca1209    1.0  0.34456  0.18388  0.58667  1.0000
  Ca  Ca1210    1.0  0.06275  0.47107  0.42239  1.0000
  Ca  Ca1211    1.0  0.60047  0.81537  0.60684  1.0000
  Ca  Ca1212    1.0  0.58546  0.97970  0.15079  1.0000
  Ca  Ca1213    1.0  0.57449  0.42338  0.98681  1.0000
  Ca  Ca1214    1.0  0.06718  0.74398  0.81536  1.0000
  Ca  Ca1215    1.0  0.24054  0.84266  0.27346  1.0000
  Ca  Ca1216    1.0  0.32547  0.22548  0.66461  1.0000
  Ca  Ca1217    1.0  0.92741  0.34831  0.73920  1.0000
  Ca  Ca1218    1.0  0.04992  0.87067  0.06494  1.0000
  Ca  Ca1219    1.0  0.96853  0.51542  0.49799  1.0000
  Ca  Ca1220    1.0  0.45881  0.08948  0.79839  1.0000
  Ca  Ca1221    1.0  0.30391  0.91840  0.95463  1.0000
  Ca  Ca1222    1.0  0.59903  0.20275  0.79723  1.0000
  Ca  Ca1223    1.0  0.55998  0.47915  0.38419  1.0000
  Ca  Ca1224    1.0  0.03690  0.70732  0.44914  1.0000
  Ca  Ca1225    1.0  0.71516  0.12665  0.04147  1.0000
  Ca  Ca1226    1.0  0.26146  0.14389  0.93440  1.0000
  Ca  Ca1227    1.0  0.45957  0.48675  0.63873  1.0000
  Ca  Ca1228    1.0  0.78591  0.56527  0.94437  1.0000
  Ca  Ca1229    1.0  0.23526  0.02279  0.86908  1.0000
  Ca  Ca1230    1.0  0.27644  0.50570  0.46901  1.0000
  Ca  Ca1231    1.0  0.62335  0.47443  0.92588  1.0000
  Ca  Ca1232    1.0  0.47493  0.50717  0.55347  1.0000
  Ca  Ca1233    1.0  0.57652  0.48436  0.73089  1.0000
  Ca  Ca1234    1.0  0.64252  0.66511  0.37723  1.0000
  Ca  Ca1235    1.0  0.66230  0.68059  0.18465  1.0000
  Ca  Ca1236    1.0  0.63005  0.94876  0.00679  1.0000
  Ca  Ca1237    1.0  0.90903  0.99179  0.04226  1.0000
  Ca  Ca1238    1.0  0.84613  0.60543  0.30923  1.0000
  Ca  Ca1239    1.0  0.59697  0.48338  0.20348  1.0000
  Ca  Ca1240    1.0  0.85683  0.02605  0.45910  1.0000
  Ca  Ca1241    1.0  0.76462  0.29849  0.15874  1.0000
  Ca  Ca1242    1.0  0.26064  0.07829  0.76884  1.0000
  Ca  Ca1243    1.0  0.72759  0.00880  0.54148  1.0000
  Ca  Ca1244    1.0  0.35622  0.45166  0.79059  1.0000
  Ca  Ca1245    1.0  0.02932  0.98572  0.70508  1.0000
  Ca  Ca1246    1.0  0.67687  0.27858  0.61856  1.0000
  Ca  Ca1247    1.0  0.48375  0.15412  0.99769  1.0000
  Ca  Ca1248    1.0  0.81937  0.34517  0.19267  1.0000
  Ca  Ca1249    1.0  0.91750  0.97708  0.60835  1.0000
  Ca  Ca1250    1.0  0.48181  0.75153  0.22830  1.0000
  Ca  Ca1251    1.0  0.15924  0.11496  0.93091  1.0000
  Ca  Ca1252    1.0  0.46559  0.43773  0.07728  1.0000
  Ca  Ca1253    1.0  0.73159  0.62041  0.05555  1.0000
  Ca  Ca1254    1.0  0.13338  0.76831  0.33246  1.0000
  Ca  Ca1255    1.0  0.06545  0.30014  0.39536  1.0000
  Ca  Ca1256    1.0  0.43456  0.73664  0.89487  1.0000
  Ca  Ca1257    1.0  0.48989  0.71210  0.99603  1.0000
  Ca  Ca1258    1.0  0.54956  0.78857  0.56191  1.0000
  Ca  Ca1259    1.0  0.23642  0.10238  0.22512  1.0000
  Ca  Ca1260    1.0  0.97880  0.03277  0.62046  1.0000
  Ca  Ca1261    1.0  0.46665  0.86572  0.78820  1.0000
  Ca  Ca1262    1.0  0.83326  0.93722  0.06413  1.0000
  Ca  Ca1263    1.0  0.17477  0.10135  0.10943  1.0000
  Ca  Ca1264    1.0  0.04946  0.00440  0.22438  1.0000
  Ca  Ca1265    1.0  0.03208  0.37397  0.39323  1.0000
  Ca  Ca1266    1.0  0.61325  0.20381  0.05236  1.0000
  Ca  Ca1267    1.0  0.07613  0.96894  0.79360  1.0000
  Ca  Ca1268    1.0  0.69727  0.97033  0.21833  1.0000
  Ca  Ca1269    1.0  0.23615  0.42991  0.21070  1.0000
  Ca  Ca1270    1.0  0.63603  0.50367  0.77978  1.0000
  Ca  Ca1271    1.0  0.46375  0.64578  0.75817  1.0000
  Ca  Ca1272    1.0  0.81358  0.43739  0.22612  1.0000
  Ca  Ca1273    1.0  0.60636  0.72602  0.37238  1.0000
  Ca  Ca1274    1.0  0.99049  0.47507  0.43605  1.0000
  Ca  Ca1275    1.0  0.72959  0.84377  0.38560  1.0000
  Ca  Ca1276    1.0  0.72257  0.26878  0.06724  1.0000
  Ca  Ca1277    1.0  0.57420  0.31280  0.96179  1.0000
  Ca  Ca1278    1.0  0.53912  0.63285  0.37616  1.0000
  Ca  Ca1279    1.0  0.62900  0.86261  0.53987  1.0000
  Ca  Ca1280    1.0  0.46527  0.62956  0.93535  1.0000
  Ca  Ca1281    1.0  0.36918  0.08674  0.97241  1.0000
  Ca  Ca1282    1.0  0.50244  0.11617  0.11750  1.0000
  Ca  Ca1283    1.0  0.02465  0.95979  0.85799  1.0000
  Ca  Ca1284    1.0  0.51718  0.08184  0.88881  1.0000
  Ca  Ca1285    1.0  0.85043  0.98469  0.00446  1.0000
  Ca  Ca1286    1.0  0.33646  0.98144  0.32601  1.0000
  Ca  Ca1287    1.0  0.71729  0.89795  0.70017  1.0000
  Ca  Ca1288    1.0  0.33696  0.01071  0.01524  1.0000
  Ca  Ca1289    1.0  0.98358  0.80608  0.22756  1.0000
  Ca  Ca1290    1.0  0.29939  0.81991  0.15934  1.0000
  Ca  Ca1291    1.0  0.44211  0.85211  0.34402  1.0000
  Ca  Ca1292    1.0  0.05151  0.39762  0.31112  1.0000
  Ca  Ca1293    1.0  0.80551  0.70480  0.22226  1.0000
  Ca  Ca1294    1.0  0.51533  0.42830  0.61288  1.0000
  Ca  Ca1295    1.0  0.68150  0.32185  0.93221  1.0000
  Ca  Ca1296    1.0  0.05181  0.52417  0.87303  1.0000
  Ca  Ca1297    1.0  0.67020  0.43407  0.28244  1.0000
  Ca  Ca1298    1.0  0.96174  0.23676  0.22041  1.0000
  Ca  Ca1299    1.0  0.94061  0.11918  0.18688  1.0000
  Ca  Ca1300    1.0  0.29483  0.32485  0.89114  1.0000
  Ca  Ca1301    1.0  0.95741  0.25276  0.36981  1.0000
  Ca  Ca1302    1.0  0.74215  0.52620  0.96590  1.0000
  Ca  Ca1303    1.0  0.17768  0.05965  0.40626  1.0000
  Ca  Ca1304    1.0  0.09204  0.07943  0.93364  1.0000
  Ca  Ca1305    1.0  0.53079  0.48523  0.55014  1.0000
  Ca  Ca1306    1.0  0.18867  0.50039  0.56694  1.0000
  Ca  Ca1307    1.0  0.00194  0.23705  0.91174  1.0000
  Ca  Ca1308    1.0  0.57762  0.70356  0.43717  1.0000
  Ca  Ca1309    1.0  0.69415  0.99506  0.60027  1.0000
  Ca  Ca1310    1.0  0.51926  0.86242  0.53783  1.0000
  Ca  Ca1311    1.0  0.23676  0.95442  0.67328  1.0000
  Ca  Ca1312    1.0  0.23616  0.31045  0.73229  1.0000
  Ca  Ca1313    1.0  0.35086  0.52035  0.47128  1.0000
  Ca  Ca1314    1.0  0.31447  0.03288  0.30695  1.0000
  Ca  Ca1315    1.0  0.00170  0.70215  0.11043  1.0000
  Ca  Ca1316    1.0  0.27556  0.56116  0.19938  1.0000
  Ca  Ca1317    1.0  0.80152  0.04265  0.75863  1.0000
  Ca  Ca1318    1.0  0.13366  0.38035  0.02714  1.0000
  Ca  Ca1319    1.0  0.18322  0.36958  0.71769  1.0000
  Ca  Ca1320    1.0  0.86708  0.04528  0.98531  1.0000
  Ca  Ca1321    1.0  0.27630  0.07340  0.14387  1.0000
  Ca  Ca1322    1.0  0.95905  0.76759  0.27519  1.0000
  Ca  Ca1323    1.0  0.56836  0.30430  0.83198  1.0000
  Ca  Ca1324    1.0  0.47128  0.00626  0.55560  1.0000
  Ca  Ca1325    1.0  0.94069  0.42481  0.06155  1.0000
  Ca  Ca1326    1.0  0.38807  0.13262  0.52436  1.0000
  Ca  Ca1327    1.0  0.91908  0.62352  0.84855  1.0000
  Ca  Ca1328    1.0  0.79273  0.60565  0.76512  1.0000
  Ca  Ca1329    1.0  0.44917  0.80204  0.28183  1.0000
  Ca  Ca1330    1.0  0.01131  0.20231  0.33357  1.0000
  Ca  Ca1331    1.0  0.30859  0.26450  0.48498  1.0000
  Ca  Ca1332    1.0  0.15230  0.23727  0.34750  1.0000
  Ca  Ca1333    1.0  0.16426  0.43438  0.83762  1.0000
  Ca  Ca1334    1.0  0.61523  0.91730  0.94038  1.0000
  Ca  Ca1335    1.0  0.67188  0.87247  0.41874  1.0000
  Ca  Ca1336    1.0  0.33225  0.62110  0.40207  1.0000
  Ca  Ca1337    1.0  0.63246  0.69090  0.09178  1.0000
  Ca  Ca1338    1.0  0.34068  0.22808  0.78195  1.0000
  Ca  Ca1339    1.0  0.89073  0.38262  0.24472  1.0000
  Ca  Ca1340    1.0  0.44989  0.53500  0.82554  1.0000
  Ca  Ca1341    1.0  0.35159  0.23031  0.37943  1.0000
  Ca  Ca1342    1.0  0.71922  0.23135  0.67963  1.0000
  Ca  Ca1343    1.0  0.58308  0.35022  0.75986  1.0000
  Ca  Ca1344    1.0  0.76251  0.32200  0.08362  1.0000
  Ca  Ca1345    1.0  0.51229  0.14705  0.69517  1.0000
  Ca  Ca1346    1.0  0.08927  0.84860  0.27250  1.0000
  Ca  Ca1347    1.0  0.83542  0.25864  0.59636  1.0000
  Ca  Ca1348    1.0  0.98537  0.47116  0.75457  1.0000
  Ca  Ca1349    1.0  0.16623  0.47274  0.75721  1.0000
  Ca  Ca1350    1.0  0.52298  0.63359  0.01419  1.0000
  Ca  Ca1351    1.0  0.14260  0.94136  0.36560  1.0000
  Ca  Ca1352    1.0  0.53967  0.15381  0.19336  1.0000
  Ca  Ca1353    1.0  0.58091  0.06632  0.49476  1.0000
  Ca  Ca1354    1.0  0.30206  0.90211  0.49217  1.0000
  Ca  Ca1355    1.0  0.84652  0.78000  0.02516  1.0000
  Ca  Ca1356    1.0  0.62107  0.52669  0.14684  1.0000
  Ca  Ca1357    1.0  0.03638  0.77249  0.18364  1.0000
  Ca  Ca1358    1.0  0.16450  0.65506  0.79310  1.0000
  Ca  Ca1359    1.0  0.87639  0.97406  0.47431  1.0000
  Ca  Ca1360    1.0  0.40581  0.52174  0.87402  1.0000
  Ca  Ca1361    1.0  0.23752  0.67099  0.21314  1.0000
  Ca  Ca1362    1.0  0.75556  0.92458  0.03388  1.0000
  Ca  Ca1363    1.0  0.36403  0.35328  0.56281  1.0000
  Ca  Ca1364    1.0  0.33828  0.38892  0.34789  1.0000
  Ca  Ca1365    1.0  0.49247  0.97929  0.90720  1.0000
  Ca  Ca1366    1.0  0.63090  0.99502  0.52842  1.0000
  Ca  Ca1367    1.0  0.74683  0.40919  0.69540  1.0000
  Ca  Ca1368    1.0  0.05470  0.15425  0.96707  1.0000
  Ca  Ca1369    1.0  0.59166  0.06862  0.75793  1.0000
  Ca  Ca1370    1.0  0.02063  0.60020  0.24365  1.0000
  Ca  Ca1371    1.0  0.09113  0.16159  0.32292  1.0000
  Ca  Ca1372    1.0  0.93039  0.41406  0.73699  1.0000
  Ca  Ca1373    1.0  0.71869  0.06241  0.00237  1.0000
  Ca  Ca1374    1.0  0.59835  0.05655  0.93722  1.0000
  Ca  Ca1375    1.0  0.93891  0.50382  0.82362  1.0000
  Ca  Ca1376    1.0  0.15311  0.25930  0.52360  1.0000
  Ca  Ca1377    1.0  0.78432  0.46669  0.10656  1.0000
  Ca  Ca1378    1.0  0.30168  0.85705  0.76498  1.0000
  Ca  Ca1379    1.0  0.11080  0.30537  0.24938  1.0000
  Ca  Ca1380    1.0  0.76071  0.23558  0.19573  1.0000
  Ca  Ca1381    1.0  0.64428  0.03072  0.44325  1.0000
  Ca  Ca1382    1.0  0.08852  0.20312  0.73231  1.0000
  Ca  Ca1383    1.0  0.57897  0.40666  0.11931  1.0000
  Ca  Ca1384    1.0  0.50022  0.87452  0.22090  1.0000
  Ca  Ca1385    1.0  0.79927  0.71085  0.03638  1.0000
  Ca  Ca1386    1.0  0.92119  0.75475  0.89260  1.0000
  Ca  Ca1387    1.0  0.98222  0.79533  0.89970  1.0000
  Ca  Ca1388    1.0  0.74628  0.32076  0.80937  1.0000
  Ca  Ca1389    1.0  0.37912  0.64302  0.12392  1.0000
  Ca  Ca1390    1.0  0.34095  0.55711  0.84308  1.0000
  Ca  Ca1391    1.0  0.79046  0.30751  0.43320  1.0000
  Ca  Ca1392    1.0  0.52997  0.23914  0.97980  1.0000
  Ca  Ca1393    1.0  0.25308  0.57137  0.89347  1.0000
  Ca  Ca1394    1.0  0.29016  0.84025  0.24029  1.0000
  Ca  Ca1395    1.0  0.52541  0.00177  0.05386  1.0000
  Ca  Ca1396    1.0  0.78583  0.08443  0.13631  1.0000
  Ca  Ca1397    1.0  0.85175  0.12111  0.57068  1.0000
  Ca  Ca1398    1.0  0.64696  0.20821  0.37287  1.0000
  Ca  Ca1399    1.0  0.53359  0.80488  0.00610  1.0000
  Ca  Ca1400    1.0  0.15653  0.47422  0.06106  1.0000
  Ca  Ca1401    1.0  0.58201  0.36133  0.43013  1.0000
  Ca  Ca1402    1.0  0.74311  0.17904  0.21694  1.0000
  Ca  Ca1403    1.0  0.69459  0.67514  0.09787  1.0000
  Ca  Ca1404    1.0  0.26560  0.33814  0.96601  1.0000
  Ca  Ca1405    1.0  0.29941  0.11752  0.54072  1.0000
  Ca  Ca1406    1.0  0.29159  0.43124  0.59479  1.0000
  Ca  Ca1407    1.0  0.69095  0.66833  0.52254  1.0000
  Ca  Ca1408    1.0  0.65731  0.79698  0.14613  1.0000
  Ca  Ca1409    1.0  0.30387  0.43917  0.06637  1.0000
  Ca  Ca1410    1.0  0.30960  0.05800  0.69902  1.0000
  Ca  Ca1411    1.0  0.73738  0.24866  0.00440  1.0000
  Ca  Ca1412    1.0  0.11811  0.96436  0.50219  1.0000
  Ca  Ca1413    1.0  0.18902  0.18253  0.34975  1.0000
  Ca  Ca1414    1.0  0.38199  0.13007  0.26903  1.0000
  Ca  Ca1415    1.0  0.18069  0.89714  0.53215  1.0000
  Ca  Ca1416    1.0  0.37119  0.85273  0.65083  1.0000
  Ca  Ca1417    1.0  0.18727  0.02318  0.57349  1.0000
  Ca  Ca1418    1.0  0.42329  0.09907  0.65368  1.0000
  Ca  Ca1419    1.0  0.00200  0.46544  0.28934  1.0000
  Ca  Ca1420    1.0  0.79423  0.60481  0.26053  1.0000
  Ca  Ca1421    1.0  0.53647  0.18112  0.37791  1.0000
  Ca  Ca1422    1.0  0.23665  0.08608  0.68641  1.0000
  Ca  Ca1423    1.0  0.39134  0.28795  0.25499  1.0000
  Ca  Ca1424    1.0  0.47161  0.64037  0.51809  1.0000
  Ca  Ca1425    1.0  0.93718  0.24817  0.09672  1.0000
  Ca  Ca1426    1.0  0.53483  0.42026  0.39129  1.0000
  Ca  Ca1427    1.0  0.75816  0.18795  0.13844  1.0000
  Ca  Ca1428    1.0  0.28511  0.30212  0.81494  1.0000
  Ca  Ca1429    1.0  0.24458  0.98557  0.05372  1.0000
  Ca  Ca1430    1.0  0.77416  0.51389  0.66260  1.0000
  Ca  Ca1431    1.0  0.92105  0.92048  0.72487  1.0000
  Ca  Ca1432    1.0  0.30516  0.65668  0.93669  1.0000
  Ca  Ca1433    1.0  0.99014  0.82761  0.45406  1.0000
  Ca  Ca1434    1.0  0.68079  0.94949  0.66255  1.0000
  Ca  Ca1435    1.0  0.34019  0.08922  0.39552  1.0000
  Ca  Ca1436    1.0  0.91718  0.85600  0.92707  1.0000
  Ca  Ca1437    1.0  0.17971  0.10478  0.83427  1.0000
  Ca  Ca1438    1.0  0.76689  0.54354  0.27252  1.0000
  Ca  Ca1439    1.0  0.37723  0.34980  0.43145  1.0000
  Ca  Ca1440    1.0  0.11563  0.01871  0.25280  1.0000
  Ca  Ca1441    1.0  0.29288  0.76899  0.58619  1.0000
  Ca  Ca1442    1.0  0.37191  0.79056  0.12872  1.0000
  Ca  Ca1443    1.0  0.46308  0.73450  0.55317  1.0000
  Ca  Ca1444    1.0  0.21979  0.27933  0.56946  1.0000
  Ca  Ca1445    1.0  0.79324  0.78327  0.59529  1.0000
  Ca  Ca1446    1.0  0.43990  0.84761  0.50945  1.0000
  Ca  Ca1447    1.0  0.30142  0.87607  0.90414  1.0000
  Ca  Ca1448    1.0  0.76593  0.74306  0.64964  1.0000
  Ca  Ca1449    1.0  0.84491  0.26033  0.23752  1.0000
  Ca  Ca1450    1.0  0.43643  0.12752  0.14528  1.0000
  Ca  Ca1451    1.0  0.42247  0.41048  0.52703  1.0000
  Ca  Ca1452    1.0  0.75562  0.41655  0.15542  1.0000
  Ca  Ca1453    1.0  0.66630  0.63805  0.31240  1.0000
  Ca  Ca1454    1.0  0.10480  0.52198  0.45839  1.0000
  Ca  Ca1455    1.0  0.57333  0.51244  0.07815  1.0000
  Ca  Ca1456    1.0  0.87113  0.13466  0.76097  1.0000
  Ca  Ca1457    1.0  0.97327  0.80682  0.37114  1.0000
  Ca  Ca1458    1.0  0.29285  0.47403  0.97055  1.0000
  Ca  Ca1459    1.0  0.38031  0.86790  0.28919  1.0000
  Ca  Ca1460    1.0  0.68950  0.15825  0.13519  1.0000
  Ca  Ca1461    1.0  0.00063  0.15199  0.90059  1.0000
  Ca  Ca1462    1.0  0.44936  0.85232  0.63127  1.0000
  Ca  Ca1463    1.0  0.46536  0.78955  0.35242  1.0000
  Ca  Ca1464    1.0  0.80848  0.64215  0.99494  1.0000
  Ca  Ca1465    1.0  0.59376  0.63431  0.33142  1.0000
  Ca  Ca1466    1.0  0.49378  0.20291  0.58796  1.0000
  Ca  Ca1467    1.0  0.82588  0.82637  0.96450  1.0000
  Ca  Ca1468    1.0  0.03911  0.19013  0.40986  1.0000
  Ca  Ca1469    1.0  0.74888  0.77638  0.44817  1.0000
  Ca  Ca1470    1.0  0.04953  0.43603  0.04697  1.0000
  Ca  Ca1471    1.0  0.38520  0.07973  0.44205  1.0000
  Ca  Ca1472    1.0  0.24207  0.35296  0.86437  1.0000
  Ca  Ca1473    1.0  0.39958  0.99243  0.99012  1.0000
  Ca  Ca1474    1.0  0.40441  0.35873  0.09131  1.0000
  Ca  Ca1475    1.0  0.35461  0.96028  0.06803  1.0000
  Ca  Ca1476    1.0  0.89994  0.88201  0.76906  1.0000
  Ca  Ca1477    1.0  0.96762  0.28280  0.18313  1.0000
  Ca  Ca1478    1.0  0.74345  0.48454  0.03660  1.0000
  Ca  Ca1479    1.0  0.05711  0.46098  0.57937  1.0000
  Ca  Ca1480    1.0  0.24362  0.89667  0.91423  1.0000
  Ca  Ca1481    1.0  0.14490  0.18928  0.50810  1.0000
  Ca  Ca1482    1.0  0.03218  0.38490  0.12726  1.0000
  Ca  Ca1483    1.0  0.79407  0.98605  0.65057  1.0000
  Ca  Ca1484    1.0  0.52890  0.32901  0.42358  1.0000
  Ca  Ca1485    1.0  0.35213  0.09225  0.64668  1.0000
  Ca  Ca1486    1.0  0.52047  0.44187  0.12773  1.0000
  Ca  Ca1487    1.0  0.61521  0.68056  0.26647  1.0000
  Ca  Ca1488    1.0  0.94652  0.34041  0.35144  1.0000
  Ca  Ca1489    1.0  0.57546  0.85118  0.93798  1.0000
  Ca  Ca1490    1.0  0.49100  0.21573  0.69463  1.0000
  Ca  Ca1491    1.0  0.52102  0.97284  0.41314  1.0000
  Ca  Ca1492    1.0  0.06853  0.33945  0.61623  1.0000
  Ca  Ca1493    1.0  0.82101  0.51487  0.37119  1.0000
  Ca  Ca1494    1.0  0.98098  0.75688  0.67553  1.0000
  Ca  Ca1495    1.0  0.74293  0.01926  0.62673  1.0000
  Ca  Ca1496    1.0  0.86082  0.64370  0.76273  1.0000
  Ca  Ca1497    1.0  0.47994  0.79451  0.65013  1.0000
  Ca  Ca1498    1.0  0.37525  0.93488  0.27914  1.0000
  Ca  Ca1499    1.0  0.68962  0.57443  0.27417  1.0000
  Ca  Ca1500    1.0  0.87578  0.60994  0.46507  1.0000
  Ca  Ca1501    1.0  0.64548  0.24886  0.74868  1.0000
  Ca  Ca1502    1.0  0.33948  0.69552  0.00160  1.0000
  Ca  Ca1503    1.0  0.29881  0.53991  0.92247  1.0000
  Ca  Ca1504    1.0  0.12544  0.19372  0.03824  1.0000
  Ca  Ca1505    1.0  0.97813  0.31361  0.49430  1.0000
  Ca  Ca1506    1.0  0.86912  0.87493  0.87221  1.0000
  Ca  Ca1507    1.0  0.03597  0.67278  0.51747  1.0000
  Ca  Ca1508    1.0  0.73993  0.16809  0.69576  1.0000
  Ca  Ca1509    1.0  0.19293  0.51069  0.13394  1.0000
  Ca  Ca1510    1.0  0.34276  0.99241  0.88438  1.0000
  Ca  Ca1511    1.0  0.66667  0.73121  0.94036  1.0000
  Ca  Ca1512    1.0  0.88592  0.70428  0.66567  1.0000
  Ca  Ca1513    1.0  0.56562  0.04880  0.36072  1.0000
  Ca  Ca1514    1.0  0.81590  0.40477  0.14955  1.0000
  Ca  Ca1515    1.0  0.33442  0.92440  0.68819  1.0000
  Ca  Ca1516    1.0  0.70712  0.76259  0.58856  1.0000
  Ca  Ca1517    1.0  0.42106  0.07626  0.52157  1.0000
  Ca  Ca1518    1.0  0.96610  0.98632  0.48166  1.0000
  Ca  Ca1519    1.0  0.53828  0.57561  0.21985  1.0000
  Ca  Ca1520    1.0  0.60581  0.58144  0.08180  1.0000
  Ca  Ca1521    1.0  0.76292  0.15398  0.37799  1.0000
  Ca  Ca1522    1.0  0.28793  0.00383  0.41686  1.0000
  Ca  Ca1523    1.0  0.09089  0.56700  0.22181  1.0000
  Ca  Ca1524    1.0  0.63063  0.39665  0.33460  1.0000
  Ca  Ca1525    1.0  0.34651  0.98308  0.78260  1.0000
  Ca  Ca1526    1.0  0.69193  0.93448  0.42027  1.0000
  Ca  Ca1527    1.0  0.31325  0.18675  0.88902  1.0000
  Ca  Ca1528    1.0  0.28499  0.00310  0.94542  1.0000
  Ca  Ca1529    1.0  0.50384  0.52803  0.04456  1.0000
  Ca  Ca1530    1.0  0.98105  0.71950  0.52157  1.0000
  Ca  Ca1531    1.0  0.77315  0.83703  0.81546  1.0000
  Ca  Ca1532    1.0  0.31736  0.83996  0.52566  1.0000
  Ca  Ca1533    1.0  0.94222  0.74578  0.41784  1.0000
  Ca  Ca1534    1.0  0.52076  0.70926  0.34392  1.0000
  Ca  Ca1535    1.0  0.07992  0.74843  0.26532  1.0000
  Ca  Ca1536    1.0  0.28112  0.68025  0.30047  1.0000
  Ca  Ca1537    1.0  0.79890  0.83416  0.08357  1.0000
  Ca  Ca1538    1.0  0.61314  0.78752  0.41243  1.0000
  Ca  Ca1539    1.0  0.29449  0.13481  0.40208  1.0000
  Ca  Ca1540    1.0  0.19119  0.15892  0.43235  1.0000
  Ca  Ca1541    1.0  0.68636  0.91494  0.83178  1.0000
  Ca  Ca1542    1.0  0.85399  0.86861  0.37592  1.0000
  Ca  Ca1543    1.0  0.75657  0.28635  0.67892  1.0000
  Ca  Ca1544    1.0  0.76018  0.26142  0.60804  1.0000
  Ca  Ca1545    1.0  0.49085  0.76972  0.93120  1.0000
  Ca  Ca1546    1.0  0.92597  0.09175  0.98346  1.0000
  Ca  Ca1547    1.0  0.89666  0.75866  0.56827  1.0000
  Ca  Ca1548    1.0  0.38714  0.67831  0.60361  1.0000
  Ca  Ca1549    1.0  0.94464  0.51832  0.16722  1.0000
  Ca  Ca1550    1.0  0.29548  0.40306  0.93779  1.0000
  Ca  Ca1551    1.0  0.36407  0.50261  0.33735  1.0000
  Ca  Ca1552    1.0  0.22110  0.47951  0.88118  1.0000
  Ca  Ca1553    1.0  0.02569  0.68552  0.22813  1.0000
  Ca  Ca1554    1.0  0.88565  0.32550  0.23199  1.0000
  Ca  Ca1555    1.0  0.99097  0.48015  0.93147  1.0000
  Ca  Ca1556    1.0  0.69850  0.78049  0.92319  1.0000
  Ca  Ca1557    1.0  0.59882  0.03546  0.08044  1.0000
  Ca  Ca1558    1.0  0.76878  0.85474  0.46734  1.0000
  Ca  Ca1559    1.0  0.78235  0.44090  0.63671  1.0000
  Ca  Ca1560    1.0  0.35683  0.75064  0.20125  1.0000
  Ca  Ca1561    1.0  0.79654  0.38284  0.08237  1.0000
  Ca  Ca1562    1.0  0.00791  0.70423  0.70515  1.0000
  Ca  Ca1563    1.0  0.90433  0.19196  0.73390  1.0000
  Ca  Ca1564    1.0  0.42231  0.43632  0.40674  1.0000
  Ca  Ca1565    1.0  0.75212  0.59381  0.89402  1.0000
  Ca  Ca1566    1.0  0.84501  0.27988  0.89783  1.0000
  Ca  Ca1567    1.0  0.39447  0.62619  0.34721  1.0000
  Ca  Ca1568    1.0  0.42838  0.19561  0.59560  1.0000
  Ca  Ca1569    1.0  0.25961  0.93568  0.45073  1.0000
  Ca  Ca1570    1.0  0.06296  0.69254  0.64547  1.0000
  Ca  Ca1571    1.0  0.25314  0.71709  0.04966  1.0000
  Ca  Ca1572    1.0  0.62943  0.86214  0.02928  1.0000
  Ca  Ca1573    1.0  0.00519  0.65232  0.38170  1.0000
  Ca  Ca1574    1.0  0.65032  0.28211  0.16401  1.0000
  Ca  Ca1575    1.0  0.77482  0.02937  0.23738  1.0000
  Ca  Ca1576    1.0  0.39798  0.21319  0.64999  1.0000
  Ca  Ca1577    1.0  0.96377  0.28373  0.62326  1.0000
  Ca  Ca1578    1.0  0.05129  0.06157  0.15751  1.0000
  Ca  Ca1579    1.0  0.07477  0.55057  0.66444  1.0000
  Ca  Ca1580    1.0  0.08591  0.88517  0.11602  1.0000
  Ca  Ca1581    1.0  0.80888  0.80258  0.74745  1.0000
  Ca  Ca1582    1.0  0.17030  0.31220  0.64413  1.0000
  Ca  Ca1583    1.0  0.83127  0.09281  0.02762  1.0000
  Ca  Ca1584    1.0  0.88832  0.21015  0.25431  1.0000
  Ca  Ca1585    1.0  0.37276  0.41966  0.00073  1.0000
  Ca  Ca1586    1.0  0.25079  0.80644  0.75260  1.0000
  Ca  Ca1587    1.0  0.55698  0.51807  0.81035  1.0000
  Ca  Ca1588    1.0  0.36737  0.44200  0.30414  1.0000
  Ca  Ca1589    1.0  0.80012  0.03583  0.06916  1.0000
  Ca  Ca1590    1.0  0.96121  0.87379  0.32293  1.0000
  Ca  Ca1591    1.0  0.25040  0.25366  0.16243  1.0000
  Ca  Ca1592    1.0  0.46689  0.37002  0.74332  1.0000
  Ca  Ca1593    1.0  0.66977  0.09794  0.13797  1.0000
  Ca  Ca1594    1.0  0.93936  0.98485  0.54725  1.0000
  Ca  Ca1595    1.0  0.74993  0.47433  0.59009  1.0000
  Ca  Ca1596    1.0  0.25354  0.07626  0.85324  1.0000
  Ca  Ca1597    1.0  0.54769  0.92786  0.13997  1.0000
  Ca  Ca1598    1.0  0.26595  0.35228  0.65493  1.0000
  Ca  Ca1599    1.0  0.70908  0.23794  0.51849  1.0000
  Ca  Ca1600    1.0  0.93983  0.42594  0.19138  1.0000
  Ca  Ca1601    1.0  0.86822  0.87606  0.56468  1.0000
  Ca  Ca1602    1.0  0.02880  0.72790  0.02326  1.0000
  Ca  Ca1603    1.0  0.34530  0.26695  0.31937  1.0000
  Ca  Ca1604    1.0  0.54459  0.67922  0.79044  1.0000
  Ca  Ca1605    1.0  0.65631  0.13088  0.21913  1.0000
  Ca  Ca1606    1.0  0.04842  0.04506  0.48310  1.0000
  Ca  Ca1607    1.0  0.72379  0.53532  0.55204  1.0000
  Ca  Ca1608    1.0  0.88663  0.98380  0.73018  1.0000
  Ca  Ca1609    1.0  0.56870  0.78827  0.94032  1.0000
  Ca  Ca1610    1.0  0.60001  0.35696  0.18115  1.0000
  Ca  Ca1611    1.0  0.36392  0.03692  0.73606  1.0000
  Ca  Ca1612    1.0  0.94548  0.12209  0.75318  1.0000
  Ca  Ca1613    1.0  0.41783  0.79908  0.40304  1.0000
  Ca  Ca1614    1.0  0.51088  0.44102  0.88068  1.0000
  Ca  Ca1615    1.0  0.36342  0.27215  0.94552  1.0000
  Ca  Ca1616    1.0  0.35520  0.79454  0.82407  1.0000
  Ca  Ca1617    1.0  0.26453  0.32025  0.50986  1.0000
  Ca  Ca1618    1.0  0.66931  0.58910  0.14012  1.0000
  Ca  Ca1619    1.0  0.26885  0.80087  0.93981  1.0000
  Ca  Ca1620    1.0  0.37105  0.82802  0.46024  1.0000
  C   C1        1.0  0.30335  0.92333  0.24691  1.0000
  O   O1        1.0  0.30460  0.90958  0.22400  1.0000
  O   O2        1.0  0.30122  0.91381  0.27270  1.0000
  O   O3        1.0  0.30423  0.94661  0.24403  1.0000
  C   C2        1.0  0.58033  0.68844  0.16119  1.0000
  O   O4        1.0  0.59421  0.66921  0.16140  1.0000
  O   O5        1.0  0.56194  0.69055  0.17959  1.0000
  O   O6        1.0  0.58484  0.70557  0.14258  1.0000
  C   C3        1.0  0.59623  0.03308  0.79772  1.0000
  O   O7        1.0  0.57892  0.04893  0.80308  1.0000
  O   O8        1.0  0.61396  0.02936  0.81661  1.0000
  O   O9        1.0  0.59581  0.02095  0.77346  1.0000
  C   C4        1.0  0.46681  0.97666  0.74222  1.0000
  O   O10       1.0  0.48539  0.96385  0.73250  1.0000
  O   O11       1.0  0.46370  0.97945  0.77015  1.0000
  O   O12       1.0  0.45133  0.98668  0.72401  1.0000
  C   C5        1.0  0.71153  0.86783  0.83249  1.0000
  O   O13       1.0  0.71976  0.86101  0.85787  1.0000
  O   O14       1.0  0.68775  0.87164  0.82863  1.0000
  O   O15       1.0  0.72707  0.87084  0.81097  1.0000
  C   C6        1.0  0.42735  0.10714  0.27377  1.0000
  O   O16       1.0  0.44527  0.12258  0.27806  1.0000
  O   O17       1.0  0.41902  0.09425  0.29537  1.0000
  O   O18       1.0  0.41776  0.10459  0.24789  1.0000
  C   C7        1.0  0.71894  0.15538  0.42809  1.0000
  O   O19       1.0  0.72261  0.16145  0.40103  1.0000
  O   O20       1.0  0.71074  0.17122  0.44666  1.0000
  O   O21       1.0  0.72347  0.13347  0.43658  1.0000
  C   C8        1.0  0.42820  0.64901  0.09086  1.0000
  O   O22       1.0  0.42161  0.63413  0.11136  1.0000
  O   O23       1.0  0.44696  0.64383  0.07391  1.0000
  O   O24       1.0  0.41604  0.66908  0.08730  1.0000
  C   C9        1.0  0.15939  0.20828  0.40633  1.0000
  O   O25       1.0  0.16763  0.18633  0.40408  1.0000
  O   O26       1.0  0.14184  0.21336  0.42499  1.0000
  O   O27       1.0  0.16870  0.22515  0.38992  1.0000
  C   C10       1.0  0.49842  0.90930  0.78128  1.0000
  O   O28       1.0  0.51052  0.89298  0.76662  1.0000
  O   O29       1.0  0.48399  0.90301  0.80281  1.0000
  O   O30       1.0  0.50076  0.93191  0.77441  1.0000
  C   C11       1.0  0.24665  0.45491  0.92028  1.0000
  O   O31       1.0  0.26500  0.45150  0.93845  1.0000
  O   O32       1.0  0.24563  0.44263  0.89616  1.0000
  O   O33       1.0  0.22932  0.47060  0.92623  1.0000
  C   C12       1.0  0.78310  0.31028  0.88822  1.0000
  O   O34       1.0  0.78738  0.32894  0.87183  1.0000
  O   O35       1.0  0.80057  0.30209  0.90529  1.0000
  O   O36       1.0  0.76134  0.29981  0.88754  1.0000
  C   C13       1.0  0.33605  0.05415  0.61493  1.0000
  O   O37       1.0  0.31999  0.06131  0.63440  1.0000
  O   O38       1.0  0.33202  0.05843  0.58744  1.0000
  O   O39       1.0  0.35614  0.04271  0.62295  1.0000
  C   C14       1.0  0.95262  0.82132  0.93340  1.0000
  O   O40       1.0  0.94762  0.79987  0.94317  1.0000
  O   O41       1.0  0.94945  0.82626  0.90592  1.0000
  O   O42       1.0  0.96079  0.83783  0.95111  1.0000
  C   C15       1.0  0.33610  0.49776  0.28066  1.0000
  O   O43       1.0  0.35161  0.51533  0.28563  1.0000
  O   O44       1.0  0.31233  0.50215  0.27774  1.0000
  O   O45       1.0  0.34436  0.47580  0.27861  1.0000
  C   C16       1.0  0.37765  0.24849  0.99727  1.0000
  O   O46       1.0  0.35806  0.23901  0.98497  1.0000
  O   O47       1.0  0.39938  0.23820  0.99458  1.0000
  O   O48       1.0  0.37550  0.26826  0.01225  1.0000
  C   C17       1.0  0.34909  0.09966  0.03920  1.0000
  O   O49       1.0  0.35648  0.09008  0.06361  1.0000
  O   O50       1.0  0.32565  0.09854  0.03171  1.0000
  O   O51       1.0  0.36514  0.11036  0.02228  1.0000
  C   C18       1.0  0.31569  0.09354  0.98630  1.0000
  O   O52       1.0  0.29585  0.10023  0.00058  1.0000
  O   O53       1.0  0.32660  0.10844  0.96849  1.0000
  O   O54       1.0  0.32462  0.07195  0.98982  1.0000
  C   C19       1.0  0.91432  0.32022  0.49572  1.0000
  O   O55       1.0  0.90197  0.32392  0.51974  1.0000
  O   O56       1.0  0.93537  0.33135  0.49116  1.0000
  O   O57       1.0  0.90562  0.30539  0.47625  1.0000
  C   C20       1.0  0.82711  0.41929  0.59829  1.0000
  O   O58       1.0  0.83825  0.40311  0.58242  1.0000
  O   O59       1.0  0.83917  0.43848  0.60644  1.0000
  O   O60       1.0  0.80391  0.41628  0.60601  1.0000
  C   C21       1.0  0.11017  0.25090  0.87633  1.0000
  O   O61       1.0  0.13386  0.25326  0.87054  1.0000
  O   O62       1.0  0.10312  0.24185  0.90116  1.0000
  O   O63       1.0  0.09353  0.25759  0.85729  1.0000
  C   C22       1.0  0.05513  0.70375  0.39086  1.0000
  O   O64       1.0  0.06113  0.72059  0.40929  1.0000
  O   O65       1.0  0.06919  0.69971  0.36823  1.0000
  O   O66       1.0  0.03507  0.69095  0.39506  1.0000
  C   C23       1.0  0.32468  0.16272  0.94256  1.0000
  O   O67       1.0  0.33470  0.18290  0.93415  1.0000
  O   O68       1.0  0.33533  0.15001  0.96289  1.0000
  O   O69       1.0  0.30400  0.15526  0.93065  1.0000
  C   C24       1.0  0.22024  0.53367  0.45310  1.0000
  O   O70       1.0  0.21073  0.55352  0.44292  1.0000
  O   O71       1.0  0.24436  0.53060  0.45319  1.0000
  O   O72       1.0  0.20563  0.51690  0.46319  1.0000
  C   C25       1.0  0.84775  0.61631  0.20789  1.0000
  O   O73       1.0  0.83378  0.60587  0.18841  1.0000
  O   O74       1.0  0.85118  0.63948  0.20698  1.0000
  O   O75       1.0  0.85829  0.60358  0.22828  1.0000
  C   C26       1.0  0.74060  0.13934  0.25916  1.0000
  O   O76       1.0  0.71976  0.13710  0.24477  1.0000
  O   O77       1.0  0.75949  0.15046  0.24740  1.0000
  O   O78       1.0  0.74256  0.13045  0.28530  1.0000
  C   C27       1.0  0.70258  0.30557  0.84687  1.0000
  O   O79       1.0  0.67950  0.31293  0.84586  1.0000
  O   O80       1.0  0.71667  0.31129  0.86893  1.0000
  O   O81       1.0  0.71158  0.29249  0.82581  1.0000
  C   C28       1.0  0.02979  0.20727  0.88069  1.0000
  O   O82       1.0  0.02698  0.18411  0.88332  1.0000
  O   O83       1.0  0.01644  0.21915  0.86184  1.0000
  O   O84       1.0  0.04595  0.21855  0.89690  1.0000
  C   C29       1.0  0.16452  0.52753  0.05296  1.0000
  O   O85       1.0  0.14439  0.52456  0.06849  1.0000
  O   O86       1.0  0.17108  0.54900  0.04464  1.0000
  O   O87       1.0  0.17809  0.50902  0.04576  1.0000
  C   C30       1.0  0.53360  0.92242  0.42225  1.0000
  O   O88       1.0  0.53691  0.93295  0.39721  1.0000
  O   O89       1.0  0.52615  0.93486  0.44465  1.0000
  O   O90       1.0  0.53774  0.89945  0.42489  1.0000
  C   C31       1.0  0.88472  0.62733  0.16868  1.0000
  O   O91       1.0  0.90860  0.63145  0.17090  1.0000
  O   O92       1.0  0.87042  0.64254  0.15499  1.0000
  O   O93       1.0  0.87514  0.60800  0.18015  1.0000
  C   C32       1.0  0.44073  0.91247  0.51865  1.0000
  O   O94       1.0  0.45833  0.92863  0.51809  1.0000
  O   O95       1.0  0.41740  0.91900  0.51714  1.0000
  O   O96       1.0  0.44646  0.88978  0.52073  1.0000
  C   C33       1.0  0.06473  0.26693  0.72837  1.0000
  O   O97       1.0  0.07683  0.24788  0.73690  1.0000
  O   O98       1.0  0.06277  0.28543  0.74561  1.0000
  O   O99       1.0  0.05458  0.26749  0.70260  1.0000
  C   C34       1.0  0.32762  0.94489  0.11552  1.0000
  O   O100      1.0  0.32369  0.92885  0.13567  1.0000
  O   O101      1.0  0.34707  0.95890  0.11709  1.0000
  O   O102      1.0  0.31211  0.94692  0.09381  1.0000
  C   C35       1.0  0.14496  0.36463  0.28468  1.0000
  O   O103      1.0  0.14725  0.34132  0.28464  1.0000
  O   O104      1.0  0.12301  0.37440  0.28150  1.0000
  O   O105      1.0  0.16462  0.37817  0.28790  1.0000
  C   C36       1.0  0.09265  0.35981  0.27033  1.0000
  O   O106      1.0  0.08472  0.33804  0.26545  1.0000
  O   O107      1.0  0.08751  0.37694  0.25195  1.0000
  O   O108      1.0  0.10572  0.36445  0.29359  1.0000
  C   C37       1.0  0.87649  0.03742  0.72474  1.0000
  O   O109      1.0  0.89101  0.02732  0.74393  1.0000
  O   O110      1.0  0.88150  0.03542  0.69709  1.0000
  O   O111      1.0  0.85696  0.04952  0.73320  1.0000
  C   C38       1.0  0.56880  0.17764  0.57892  1.0000
  O   O112      1.0  0.58664  0.19340  0.58173  1.0000
  O   O113      1.0  0.54925  0.17869  0.59576  1.0000
  O   O114      1.0  0.57051  0.16084  0.55927  1.0000
  C   C39       1.0  0.52854  0.15179  0.60883  1.0000
  O   O115      1.0  0.51019  0.16715  0.60798  1.0000
  O   O116      1.0  0.53673  0.14209  0.58484  1.0000
  O   O117      1.0  0.53870  0.14613  0.63367  1.0000
  C   C40       1.0  0.12573  0.31255  0.16369  1.0000
  O   O118      1.0  0.12733  0.33006  0.18243  1.0000
  O   O119      1.0  0.11268  0.29346  0.16990  1.0000
  O   O120      1.0  0.13718  0.31413  0.13874  1.0000
  C   C41       1.0  0.52248  0.06687  0.79723  1.0000
  O   O121      1.0  0.52170  0.04750  0.78132  1.0000
  O   O122      1.0  0.54153  0.07080  0.81422  1.0000
  O   O123      1.0  0.50421  0.08231  0.79615  1.0000
  C   C42       1.0  0.46502  0.43491  0.66392  1.0000
  O   O124      1.0  0.48445  0.42464  0.65223  1.0000
  O   O125      1.0  0.46090  0.43280  0.69176  1.0000
  O   O126      1.0  0.44971  0.44729  0.64777  1.0000
  C   C43       1.0  0.86422  0.07371  0.36518  1.0000
  O   O127      1.0  0.86441  0.05033  0.36679  1.0000
  O   O128      1.0  0.88450  0.08584  0.37064  1.0000
  O   O129      1.0  0.84376  0.08495  0.35810  1.0000
  C   C44       1.0  0.79582  0.44284  0.04616  1.0000
  O   O130      1.0  0.77973  0.45926  0.05371  1.0000
  O   O131      1.0  0.80723  0.43027  0.06605  1.0000
  O   O132      1.0  0.80050  0.43899  0.01872  1.0000
  C   C45       1.0  0.98370  0.37349  0.96712  1.0000
  O   O133      1.0  0.97276  0.36108  0.98751  1.0000
  O   O134      1.0  0.00386  0.38568  0.97298  1.0000
  O   O135      1.0  0.97449  0.37371  0.94087  1.0000
  C   C46       1.0  0.90452  0.75089  0.14442  1.0000
  O   O136      1.0  0.92243  0.74019  0.15858  1.0000
  O   O137      1.0  0.90166  0.77407  0.14663  1.0000
  O   O138      1.0  0.88947  0.73841  0.12805  1.0000
  C   C47       1.0  0.65536  0.23757  0.51325  1.0000
  O   O139      1.0  0.66340  0.23103  0.53882  1.0000
  O   O140      1.0  0.64115  0.22319  0.49819  1.0000
  O   O141      1.0  0.66153  0.25849  0.50273  1.0000
  C   C48       1.0  0.67447  0.81976  0.90255  1.0000
  O   O142      1.0  0.69867  0.82148  0.90050  1.0000
  O   O143      1.0  0.66075  0.83910  0.90244  1.0000
  O   O144      1.0  0.66399  0.79871  0.90471  1.0000
  C   C49       1.0  0.08694  0.48423  0.53703  1.0000
  O   O145      1.0  0.06434  0.47645  0.53239  1.0000
  O   O146      1.0  0.09628  0.50103  0.52054  1.0000
  O   O147      1.0  0.10020  0.47521  0.55816  1.0000
  C   C50       1.0  0.50528  0.14082  0.43869  1.0000
  O   O148      1.0  0.50400  0.15701  0.41825  1.0000
  O   O149      1.0  0.48711  0.13862  0.45736  1.0000
  O   O150      1.0  0.52473  0.12683  0.44045  1.0000
  C   C51       1.0  0.39046  0.18434  0.38650  1.0000
  O   O151      1.0  0.38844  0.16279  0.39734  1.0000
  O   O152      1.0  0.38962  0.20300  0.40361  1.0000
  O   O153      1.0  0.39332  0.18724  0.35855  1.0000
  C   C52       1.0  0.33627  0.57734  0.78607  1.0000
  O   O154      1.0  0.34160  0.55463  0.78910  1.0000
  O   O155      1.0  0.34696  0.58987  0.76561  1.0000
  O   O156      1.0  0.32025  0.58751  0.80350  1.0000
  C   C53       1.0  0.21308  0.87739  0.29598  1.0000
  O   O157      1.0  0.20268  0.86806  0.27297  1.0000
  O   O158      1.0  0.22011  0.86357  0.31736  1.0000
  O   O159      1.0  0.21645  0.90054  0.29761  1.0000
  C   C54       1.0  0.01332  0.46472  0.98394  1.0000
  O   O160      1.0  0.02669  0.46853  0.96070  1.0000
  O   O161      1.0  0.98917  0.46750  0.98304  1.0000
  O   O162      1.0  0.02410  0.45813  0.00808  1.0000
  C   C55       1.0  0.40730  0.04379  0.48279  1.0000
  O   O163      1.0  0.42874  0.05341  0.47615  1.0000
  O   O164      1.0  0.40380  0.02081  0.47917  1.0000
  O   O165      1.0  0.38936  0.05715  0.49305  1.0000
  C   C56       1.0  0.22175  0.84792  0.49831  1.0000
  O   O166      1.0  0.24376  0.85552  0.50613  1.0000
  O   O167      1.0  0.21737  0.82494  0.49640  1.0000
  O   O168      1.0  0.20411  0.86330  0.49240  1.0000
  C   C57       1.0  0.97680  0.19506  0.40409  1.0000
  O   O169      1.0  0.97497  0.17440  0.41727  1.0000
  O   O170      1.0  0.98072  0.19584  0.37611  1.0000
  O   O171      1.0  0.97471  0.21493  0.41889  1.0000
  C   C58       1.0  0.77398  0.36754  0.16532  1.0000
  O   O172      1.0  0.76006  0.38076  0.18220  1.0000
  O   O173      1.0  0.78306  0.37651  0.14135  1.0000
  O   O174      1.0  0.77882  0.34535  0.17241  1.0000
  C   C59       1.0  0.69382  0.08847  0.19447  1.0000
  O   O175      1.0  0.70702  0.08275  0.21727  1.0000
  O   O176      1.0  0.69785  0.10876  0.18113  1.0000
  O   O177      1.0  0.67659  0.07390  0.18501  1.0000
  C   C60       1.0  0.20134  0.92112  0.67390  1.0000
  O   O178      1.0  0.18364  0.91148  0.65833  1.0000
  O   O179      1.0  0.19708  0.94081  0.68842  1.0000
  O   O180      1.0  0.22330  0.91107  0.67495  1.0000
  C   C61       1.0  0.92995  0.79858  0.11297  1.0000
  O   O181      1.0  0.90773  0.79349  0.10319  1.0000
  O   O182      1.0  0.94212  0.81693  0.10252  1.0000
  O   O183      1.0  0.94000  0.78532  0.13320  1.0000
  C   C62       1.0  0.00709  0.75929  0.06076  1.0000
  O   O184      1.0  0.99173  0.75240  0.04040  1.0000
  O   O185      1.0  0.00668  0.74883  0.08613  1.0000
  O   O186      1.0  0.02285  0.77664  0.05575  1.0000
  C   C63       1.0  0.27455  0.93337  0.88617  1.0000
  O   O187      1.0  0.28592  0.91762  0.90245  1.0000
  O   O188      1.0  0.28721  0.95064  0.87397  1.0000
  O   O189      1.0  0.25052  0.93185  0.88209  1.0000
  C   C64       1.0  0.22168  0.99055  0.91445  1.0000
  O   O190      1.0  0.22804  0.96804  0.91205  1.0000
  O   O191      1.0  0.23883  0.00713  0.91552  1.0000
  O   O192      1.0  0.19817  0.99648  0.91578  1.0000
  C   C65       1.0  0.34876  0.04499  0.43973  1.0000
  O   O193      1.0  0.37116  0.03818  0.44713  1.0000
  O   O194      1.0  0.32956  0.03806  0.45500  1.0000
  O   O195      1.0  0.34556  0.05872  0.41706  1.0000
  C   C66       1.0  0.29444  0.04195  0.37481  1.0000
  O   O196      1.0  0.31232  0.03136  0.38915  1.0000
  O   O197      1.0  0.28768  0.03383  0.34940  1.0000
  O   O198      1.0  0.28331  0.06066  0.38588  1.0000
  C   C67       1.0  0.05490  0.04482  0.40521  1.0000
  O   O199      1.0  0.03351  0.05307  0.39611  1.0000
  O   O200      1.0  0.05648  0.03447  0.43059  1.0000
  O   O201      1.0  0.07471  0.04693  0.38894  1.0000
  C   C68       1.0  0.08265  0.43408  0.99127  1.0000
  O   O202      1.0  0.10166  0.44536  0.98002  1.0000
  O   O203      1.0  0.06149  0.43330  0.97730  1.0000
  O   O204      1.0  0.08480  0.42358  0.01650  1.0000
  C   C69       1.0  0.06771  0.38721  0.05911  1.0000
  O   O205      1.0  0.06175  0.39120  0.08618  1.0000
  O   O206      1.0  0.05043  0.38693  0.03914  1.0000
  O   O207      1.0  0.09095  0.38350  0.05201  1.0000
  C   C70       1.0  0.53712  0.38390  0.43923  1.0000
  O   O208      1.0  0.54060  0.36279  0.45081  1.0000
  O   O209      1.0  0.51459  0.39248  0.43667  1.0000
  O   O210      1.0  0.55617  0.39643  0.43021  1.0000
  C   C71       1.0  0.51084  0.45651  0.42872  1.0000
  O   O211      1.0  0.51542  0.43821  0.44559  1.0000
  O   O212      1.0  0.50601  0.47747  0.44003  1.0000
  O   O213      1.0  0.51110  0.45385  0.40054  1.0000
  C   C72       1.0  0.98259  0.51509  0.39686  1.0000
  O   O214      1.0  0.96409  0.50664  0.41218  1.0000
  O   O215      1.0  0.00548  0.51214  0.40578  1.0000
  O   O216      1.0  0.97820  0.52649  0.37262  1.0000
  C   C73       1.0  0.04127  0.78276  0.43491  1.0000
  O   O217      1.0  0.04718  0.78374  0.46240  1.0000
  O   O218      1.0  0.05761  0.77539  0.41588  1.0000
  O   O219      1.0  0.01901  0.78915  0.42645  1.0000
  C   C74       1.0  0.98210  0.77501  0.42028  1.0000
  O   O220      1.0  0.98939  0.76839  0.39443  1.0000
  O   O221      1.0  0.97113  0.79570  0.42387  1.0000
  O   O222      1.0  0.98579  0.76094  0.44254  1.0000
  C   C75       1.0  0.83383  0.91214  0.51936  1.0000
  O   O223      1.0  0.83090  0.89557  0.53911  1.0000
  O   O224      1.0  0.81624  0.92788  0.51483  1.0000
  O   O225      1.0  0.85435  0.91297  0.50414  1.0000
  C   C76       1.0  0.83457  0.99642  0.11779  1.0000
  O   O226      1.0  0.81513  0.00829  0.10860  1.0000
  O   O227      1.0  0.85581  0.00744  0.12140  1.0000
  O   O228      1.0  0.83276  0.97353  0.12337  1.0000
  C   C77       1.0  0.82275  0.94009  0.14910  1.0000
  O   O229      1.0  0.82960  0.94506  0.17564  1.0000
  O   O230      1.0  0.83804  0.92896  0.13164  1.0000
  O   O231      1.0  0.80061  0.94626  0.14002  1.0000
  C   C78       1.0  0.78308  0.97004  0.53055  1.0000
  O   O232      1.0  0.80652  0.97355  0.52423  1.0000
  O   O233      1.0  0.76664  0.98667  0.52492  1.0000
  O   O234      1.0  0.77608  0.94990  0.54250  1.0000
  C   C79       1.0  0.16448  0.51063  0.87502  1.0000
  O   O235      1.0  0.14902  0.52212  0.89193  1.0000
  O   O236      1.0  0.18828  0.51049  0.88092  1.0000
  O   O237      1.0  0.15614  0.49927  0.85220  1.0000
  C   C80       1.0  0.19433  0.56283  0.85840  1.0000
  O   O238      1.0  0.21389  0.57665  0.86046  1.0000
  O   O239      1.0  0.19696  0.54025  0.85156  1.0000
  O   O240      1.0  0.17214  0.57159  0.86319  1.0000
  C   C81       1.0  0.32896  0.65296  0.66320  1.0000
  O   O241      1.0  0.31120  0.64396  0.67923  1.0000
  O   O242      1.0  0.33102  0.64663  0.63600  1.0000
  O   O243      1.0  0.34466  0.66829  0.67437  1.0000
  C   C82       1.0  0.89979  0.52590  0.31978  1.0000
  O   O244      1.0  0.92281  0.53320  0.31731  1.0000
  O   O245      1.0  0.88217  0.54123  0.32596  1.0000
  O   O246      1.0  0.89438  0.50328  0.31608  1.0000
  C   C83       1.0  0.28977  0.49828  0.60377  1.0000
  O   O247      1.0  0.30416  0.51713  0.60516  1.0000
  O   O248      1.0  0.27368  0.49407  0.62443  1.0000
  O   O249      1.0  0.29147  0.48365  0.58172  1.0000
  C   C84       1.0  0.32239  0.97511  0.83334  1.0000
  O   O250      1.0  0.30932  0.98950  0.84972  1.0000
  O   O251      1.0  0.34669  0.97549  0.83464  1.0000
  O   O252      1.0  0.31116  0.96033  0.81566  1.0000
  C   C85       1.0  0.39232  0.46769  0.90831  1.0000
  O   O253      1.0  0.37898  0.45266  0.92352  1.0000
  O   O254      1.0  0.41180  0.47793  0.91993  1.0000
  O   O255      1.0  0.38617  0.47248  0.88149  1.0000
  C   C86       1.0  0.35805  0.99589  0.41015  1.0000
  O   O256      1.0  0.33558  0.99875  0.42046  1.0000
  O   O257      1.0  0.37291  0.01432  0.40763  1.0000
  O   O258      1.0  0.36567  0.97460  0.40237  1.0000
  C   C87       1.0  0.00175  0.94448  0.65443  1.0000
  O   O259      1.0  0.00572  0.96279  0.67149  1.0000
  O   O260      1.0  0.01083  0.92346  0.66109  1.0000
  O   O261      1.0  0.98870  0.94718  0.63071  1.0000
  C   C88       1.0  0.96990  0.95204  0.70273  1.0000
  O   O262      1.0  0.96307  0.93107  0.71253  1.0000
  O   O263      1.0  0.98740  0.96406  0.71600  1.0000
  O   O264      1.0  0.95922  0.96099  0.67966  1.0000
  C   C89       1.0  0.01030  0.83678  0.09818  1.0000
  O   O265      1.0  0.03330  0.84160  0.10536  1.0000
  O   O266      1.0  0.99196  0.84488  0.11402  1.0000
  O   O267      1.0  0.00564  0.82386  0.07516  1.0000
  C   C90       1.0  0.83377  0.48072  0.65538  1.0000
  O   O268      1.0  0.84143  0.47360  0.68088  1.0000
  O   O269      1.0  0.81273  0.47273  0.64492  1.0000
  O   O270      1.0  0.84715  0.49583  0.64033  1.0000
  C   C91       1.0  0.80722  0.25509  0.38244  1.0000
  O   O271      1.0  0.80209  0.25513  0.35471  1.0000
  O   O272      1.0  0.82275  0.23932  0.39301  1.0000
  O   O273      1.0  0.79682  0.27082  0.39959  1.0000
  C   C92       1.0  0.93362  0.68163  0.12350  1.0000
  O   O274      1.0  0.94215  0.68032  0.09698  1.0000
  O   O275      1.0  0.93394  0.70207  0.13733  1.0000
  O   O276      1.0  0.92477  0.66250  0.13619  1.0000
  C   C93       1.0  0.84306  0.75558  0.08950  1.0000
  O   O277      1.0  0.85221  0.74933  0.06433  1.0000
  O   O278      1.0  0.84521  0.74123  0.11177  1.0000
  O   O279      1.0  0.83176  0.77618  0.09240  1.0000
  C   C94       1.0  0.88896  0.69886  0.07923  1.0000
  O   O280      1.0  0.88195  0.72128  0.07924  1.0000
  O   O281      1.0  0.88049  0.68419  0.05946  1.0000
  O   O282      1.0  0.90445  0.69111  0.09899  1.0000
  C   C95       1.0  0.77912  0.09432  0.55733  1.0000
  O   O283      1.0  0.78290  0.11713  0.56195  1.0000
  O   O284      1.0  0.76983  0.08714  0.53260  1.0000
  O   O285      1.0  0.78463  0.07869  0.57744  1.0000
  C   C96       1.0  0.69772  0.19049  0.50544  1.0000
  O   O286      1.0  0.69462  0.19772  0.53217  1.0000
  O   O287      1.0  0.67838  0.18557  0.48930  1.0000
  O   O288      1.0  0.72017  0.18818  0.49485  1.0000
  C   C97       1.0  0.94457  0.03033  0.12463  1.0000
  O   O289      1.0  0.95560  0.05015  0.11672  1.0000
  O   O290      1.0  0.92317  0.02441  0.11318  1.0000
  O   O291      1.0  0.95494  0.01642  0.14398  1.0000
  C   C98       1.0  0.07148  0.21035  0.82409  1.0000
  O   O292      1.0  0.06201  0.21208  0.85013  1.0000
  O   O293      1.0  0.07772  0.22968  0.80984  1.0000
  O   O294      1.0  0.07471  0.18928  0.81230  1.0000
  C   C99       1.0  0.76323  0.58861  0.83206  1.0000
  O   O295      1.0  0.76587  0.57016  0.84925  1.0000
  O   O296      1.0  0.74866  0.60631  0.83957  1.0000
  O   O297      1.0  0.77516  0.58936  0.80736  1.0000
  C   C100      1.0  0.51743  0.84575  0.77325  1.0000
  O   O298      1.0  0.51964  0.85381  0.74674  1.0000
  O   O299      1.0  0.49640  0.83636  0.78186  1.0000
  O   O300      1.0  0.53626  0.84708  0.79115  1.0000
  C   C101      1.0  0.63056  0.06192  0.25955  1.0000
  O   O301      1.0  0.63546  0.03942  0.25418  1.0000
  O   O302      1.0  0.64204  0.07298  0.28067  1.0000
  O   O303      1.0  0.61418  0.07336  0.24380  1.0000
  C   C102      1.0  0.36464  0.32650  0.21931  1.0000
  O   O304      1.0  0.35538  0.30591  0.22741  1.0000
  O   O305      1.0  0.36868  0.34328  0.23852  1.0000
  O   O306      1.0  0.36986  0.33031  0.19199  1.0000
  C   C103      1.0  0.81408  0.54974  0.61323  1.0000
  O   O307      1.0  0.83301  0.55540  0.62969  1.0000
  O   O308      1.0  0.79540  0.53768  0.62406  1.0000
  O   O309      1.0  0.81383  0.55614  0.58595  1.0000
  C   C104      1.0  0.10801  0.31629  0.98571  1.0000
  O   O310      1.0  0.13197  0.31632  0.99064  1.0000
  O   O311      1.0  0.09470  0.29743  0.99217  1.0000
  O   O312      1.0  0.09736  0.33512  0.97432  1.0000
  C   C105      1.0  0.81851  0.72224  0.51185  1.0000
  O   O313      1.0  0.81995  0.72579  0.48386  1.0000
  O   O314      1.0  0.80640  0.73741  0.52820  1.0000
  O   O315      1.0  0.82918  0.70352  0.52349  1.0000
  C   C106      1.0  0.65101  0.05176  0.91078  1.0000
  O   O316      1.0  0.66599  0.04105  0.92899  1.0000
  O   O317      1.0  0.65497  0.05014  0.88286  1.0000
  O   O318      1.0  0.63207  0.06408  0.92049  1.0000
  C   C107      1.0  0.61755  0.10276  0.92480  1.0000
  O   O319      1.0  0.62764  0.12170  0.91298  1.0000
  O   O320      1.0  0.59770  0.09316  0.91323  1.0000
  O   O321      1.0  0.62731  0.09342  0.94819  1.0000
  C   C108      1.0  0.11763  0.16655  0.74912  1.0000
  O   O322      1.0  0.11716  0.14560  0.73647  1.0000
  O   O323      1.0  0.13392  0.18262  0.74105  1.0000
  O   O324      1.0  0.10181  0.17143  0.76984  1.0000
  C   C109      1.0  0.62945  0.25941  0.21670  1.0000
  O   O325      1.0  0.64018  0.24032  0.20606  1.0000
  O   O326      1.0  0.61566  0.27293  0.20002  1.0000
  O   O327      1.0  0.63251  0.26498  0.24402  1.0000
  C   C110      1.0  0.59930  0.26775  0.16420  1.0000
  O   O328      1.0  0.61303  0.24900  0.15851  1.0000
  O   O329      1.0  0.60413  0.28823  0.15166  1.0000
  O   O330      1.0  0.58074  0.26602  0.18242  1.0000
  C   C111      1.0  0.91466  0.82665  0.59218  1.0000
  O   O331      1.0  0.90730  0.80589  0.58225  1.0000
  O   O332      1.0  0.90058  0.83860  0.61022  1.0000
  O   O333      1.0  0.93610  0.83546  0.58407  1.0000
  C   C112      1.0  0.89374  0.82928  0.65358  1.0000
  O   O334      1.0  0.91004  0.84563  0.66073  1.0000
  O   O335      1.0  0.90003  0.80666  0.65373  1.0000
  O   O336      1.0  0.87115  0.83554  0.64628  1.0000
  C   C113      1.0  0.97672  0.87856  0.72330  1.0000
  O   O337      1.0  0.95899  0.86534  0.73429  1.0000
  O   O338      1.0  0.99105  0.86993  0.70290  1.0000
  O   O339      1.0  0.98012  0.90040  0.73271  1.0000
  C   C114      1.0  0.38212  0.96055  0.87349  1.0000
  O   O340      1.0  0.38465  0.98132  0.86072  1.0000
  O   O341      1.0  0.36053  0.94974  0.87338  1.0000
  O   O342      1.0  0.40117  0.95059  0.88636  1.0000
  C   C115      1.0  0.98583  0.13237  0.45661  1.0000
  O   O343      1.0  0.99394  0.15387  0.46269  1.0000
  O   O344      1.0  0.98868  0.11501  0.47535  1.0000
  O   O345      1.0  0.97487  0.12823  0.43179  1.0000
  C   C116      1.0  0.95196  0.26868  0.50941  1.0000
  O   O346      1.0  0.97327  0.26730  0.52300  1.0000
  O   O347      1.0  0.94038  0.28921  0.50754  1.0000
  O   O348      1.0  0.94223  0.24952  0.49769  1.0000
  C   C117      1.0  0.17983  0.22496  0.56104  1.0000
  O   O349      1.0  0.15798  0.21860  0.55121  1.0000
  O   O350      1.0  0.18865  0.24623  0.55514  1.0000
  O   O351      1.0  0.19286  0.21004  0.57676  1.0000
  C   C118      1.0  0.47041  0.91138  0.20069  1.0000
  O   O352      1.0  0.45816  0.92940  0.18956  1.0000
  O   O353      1.0  0.45835  0.89287  0.21090  1.0000
  O   O354      1.0  0.49472  0.91187  0.20162  1.0000
  C   C119      1.0  0.40134  0.08642  0.38495  1.0000
  O   O355      1.0  0.40513  0.10279  0.40474  1.0000
  O   O356      1.0  0.39000  0.06648  0.39178  1.0000
  O   O357      1.0  0.40889  0.08998  0.35833  1.0000
  C   C120      1.0  0.29754  0.28940  0.93228  1.0000
  O   O358      1.0  0.30158  0.27975  0.90687  1.0000
  O   O359      1.0  0.28187  0.30719  0.93481  1.0000
  O   O360      1.0  0.30916  0.28125  0.95516  1.0000
  C   C121      1.0  0.27644  0.24978  0.55092  1.0000
  O   O361      1.0  0.28466  0.22776  0.55206  1.0000
  O   O362      1.0  0.25928  0.25694  0.56907  1.0000
  O   O363      1.0  0.28538  0.26464  0.53163  1.0000
  C   C122      1.0  0.32491  0.25544  0.59637  1.0000
  O   O364      1.0  0.31711  0.25016  0.57027  1.0000
  O   O365      1.0  0.31928  0.24151  0.61820  1.0000
  O   O366      1.0  0.33834  0.27465  0.60063  1.0000
  C   C123      1.0  0.30258  0.19296  0.63153  1.0000
  O   O367      1.0  0.31142  0.20559  0.60998  1.0000
  O   O368      1.0  0.28731  0.20278  0.65013  1.0000
  O   O369      1.0  0.30901  0.17051  0.63447  1.0000
  C   C124      1.0  0.71108  0.82672  0.60424  1.0000
  O   O370      1.0  0.71875  0.84122  0.62464  1.0000
  O   O371      1.0  0.70005  0.83530  0.58119  1.0000
  O   O372      1.0  0.71444  0.80363  0.60689  1.0000
  C   C125      1.0  0.49744  0.11314  0.83923  1.0000
  O   O373      1.0  0.47964  0.11357  0.85856  1.0000
  O   O374      1.0  0.51709  0.09978  0.84344  1.0000
  O   O375      1.0  0.49559  0.12607  0.81569  1.0000
  C   C126      1.0  0.68339  0.94743  0.05111  1.0000
  O   O376      1.0  0.70644  0.94106  0.05590  1.0000
  O   O377      1.0  0.67167  0.96084  0.06993  1.0000
  O   O378      1.0  0.67206  0.94039  0.02750  1.0000
  C   C127      1.0  0.17698  0.76256  0.73337  1.0000
  O   O379      1.0  0.18348  0.76626  0.70640  1.0000
  O   O380      1.0  0.15637  0.75109  0.73923  1.0000
  O   O381      1.0  0.19109  0.77033  0.75447  1.0000
  C   C128      1.0  0.20712  0.73757  0.78605  1.0000
  O   O382      1.0  0.18372  0.73730  0.77829  1.0000
  O   O383      1.0  0.21707  0.75726  0.79611  1.0000
  O   O384      1.0  0.22057  0.71815  0.78375  1.0000
  C   C129      1.0  0.32492  0.71637  0.79491  1.0000
  O   O385      1.0  0.30531  0.70250  0.79499  1.0000
  O   O386      1.0  0.33341  0.72511  0.81929  1.0000
  O   O387      1.0  0.33603  0.72150  0.77045  1.0000
  C   C130      1.0  0.30636  0.81487  0.80003  1.0000
  O   O388      1.0  0.29865  0.80318  0.82291  1.0000
  O   O389      1.0  0.29164  0.81748  0.77766  1.0000
  O   O390      1.0  0.32879  0.82395  0.79952  1.0000
  C   C131      1.0  0.31536  0.76519  0.81134  1.0000
  O   O391      1.0  0.30248  0.74673  0.80243  1.0000
  O   O392      1.0  0.32009  0.78284  0.79354  1.0000
  O   O393      1.0  0.32351  0.76599  0.83805  1.0000
  C   C132      1.0  0.35977  0.53246  0.89292  1.0000
  O   O394      1.0  0.37785  0.52906  0.91145  1.0000
  O   O395      1.0  0.34237  0.54816  0.89852  1.0000
  O   O396      1.0  0.35909  0.52016  0.86880  1.0000
  C   C133      1.0  0.19981  0.71817  0.84269  1.0000
  O   O397      1.0  0.21225  0.69857  0.83715  1.0000
  O   O398      1.0  0.17817  0.72179  0.83049  1.0000
  O   O399      1.0  0.20902  0.73415  0.86043  1.0000
  C   C134      1.0  0.24509  0.60005  0.84013  1.0000
  O   O400      1.0  0.25398  0.57898  0.83338  1.0000
  O   O401      1.0  0.23044  0.61129  0.82203  1.0000
  O   O402      1.0  0.25084  0.60988  0.86498  1.0000
  C   C135      1.0  0.29083  0.53760  0.84711  1.0000
  O   O403      1.0  0.30062  0.54670  0.87062  1.0000
  O   O404      1.0  0.26666  0.53720  0.84390  1.0000
  O   O405      1.0  0.30522  0.52891  0.82680  1.0000
  C   C136      1.0  0.74707  0.49733  0.76883  1.0000
  O   O406      1.0  0.74208  0.47502  0.77515  1.0000
  O   O407      1.0  0.75788  0.50263  0.74424  1.0000
  O   O408      1.0  0.74126  0.51434  0.78710  1.0000
  C   C137      1.0  0.21114  0.04048  0.14552  1.0000
  O   O409      1.0  0.22621  0.04386  0.12363  1.0000
  O   O410      1.0  0.20247  0.01906  0.15094  1.0000
  O   O411      1.0  0.20474  0.05852  0.16199  1.0000
  C   C138      1.0  0.79733  0.63900  0.54669  1.0000
  O   O412      1.0  0.80779  0.61924  0.53758  1.0000
  O   O413      1.0  0.81017  0.65434  0.56202  1.0000
  O   O414      1.0  0.77404  0.64342  0.54047  1.0000
  C   C139      1.0  0.93782  0.03496  0.93741  1.0000
  O   O415      1.0  0.93941  0.05450  0.95292  1.0000
  O   O416      1.0  0.94821  0.01519  0.94659  1.0000
  O   O417      1.0  0.92584  0.03519  0.91272  1.0000
  C   C140      1.0  0.12098  0.08145  0.00827  1.0000
  O   O418      1.0  0.11886  0.05852  0.01342  1.0000
  O   O419      1.0  0.12044  0.08936  0.98158  1.0000
  O   O420      1.0  0.12364  0.09647  0.02981  1.0000
  C   C141      1.0  0.42219  0.15203  0.66414  1.0000
  O   O421      1.0  0.44306  0.14375  0.65356  1.0000
  O   O422      1.0  0.42030  0.17465  0.67111  1.0000
  O   O423      1.0  0.40321  0.13769  0.66776  1.0000
  C   C142      1.0  0.45905  0.14610  0.70492  1.0000
  O   O424      1.0  0.47471  0.13509  0.72204  1.0000
  O   O425      1.0  0.43791  0.13595  0.69811  1.0000
  O   O426      1.0  0.46453  0.16726  0.69460  1.0000
  C   C143      1.0  0.69024  0.32405  0.14493  1.0000
  O   O427      1.0  0.67885  0.33906  0.16218  1.0000
  O   O428      1.0  0.71042  0.33067  0.13126  1.0000
  O   O429      1.0  0.68145  0.30242  0.14135  1.0000
  C   C144      1.0  0.39947  0.13286  0.85835  1.0000
  O   O430      1.0  0.40235  0.13212  0.83020  1.0000
  O   O431      1.0  0.38317  0.14744  0.86981  1.0000
  O   O432      1.0  0.41289  0.11902  0.87504  1.0000
  C   C145      1.0  0.12401  0.60466  0.27180  1.0000
  O   O433      1.0  0.12076  0.58580  0.25542  1.0000
  O   O434      1.0  0.10774  0.60988  0.29193  1.0000
  O   O435      1.0  0.14352  0.61830  0.26805  1.0000
  C   C146      1.0  0.20085  0.81606  0.13093  1.0000
  O   O436      1.0  0.19068  0.83571  0.12105  1.0000
  O   O437      1.0  0.19169  0.79522  0.12364  1.0000
  O   O438      1.0  0.22018  0.81725  0.14811  1.0000
  C   C147      1.0  0.37873  0.29570  0.56406  1.0000
  O   O439      1.0  0.39217  0.27770  0.57319  1.0000
  O   O440      1.0  0.38766  0.31746  0.56513  1.0000
  O   O441      1.0  0.35636  0.29194  0.55386  1.0000
  C   C148      1.0  0.10693  0.66952  0.15542  1.0000
  O   O442      1.0  0.08783  0.68372  0.15188  1.0000
  O   O443      1.0  0.11132  0.66000  0.18083  1.0000
  O   O444      1.0  0.12164  0.66483  0.13355  1.0000
  C   C149      1.0  0.07446  0.71702  0.20621  1.0000
  O   O445      1.0  0.06159  0.69804  0.19908  1.0000
  O   O446      1.0  0.08983  0.71618  0.22817  1.0000
  O   O447      1.0  0.07196  0.73683  0.19138  1.0000
  C   C150      1.0  0.94648  0.72074  0.66862  1.0000
  O   O448      1.0  0.96492  0.71839  0.68690  1.0000
  O   O449      1.0  0.94351  0.74084  0.65448  1.0000
  O   O450      1.0  0.93101  0.70299  0.66448  1.0000
  C   C151      1.0  0.83308  0.73612  0.57928  1.0000
  O   O451      1.0  0.85395  0.73493  0.59379  1.0000
  O   O452      1.0  0.82249  0.75687  0.57476  1.0000
  O   O453      1.0  0.82280  0.71657  0.56929  1.0000
  C   C152      1.0  0.36123  0.88293  0.70702  1.0000
  O   O454      1.0  0.37344  0.86356  0.71419  1.0000
  O   O455      1.0  0.35861  0.90029  0.72581  1.0000
  O   O456      1.0  0.35165  0.88495  0.68106  1.0000
  C   C153      1.0  0.00550  0.10080  0.10013  1.0000
  O   O457      1.0  0.98758  0.11344  0.11168  1.0000
  O   O458      1.0  0.00285  0.07768  0.09686  1.0000
  O   O459      1.0  0.02607  0.11127  0.09185  1.0000
  C   C154      1.0  0.89250  0.09876  0.17544  1.0000
  O   O460      1.0  0.90228  0.08546  0.19581  1.0000
  O   O461      1.0  0.90650  0.10714  0.15458  1.0000
  O   O462      1.0  0.86872  0.10369  0.17593  1.0000
  C   C155      1.0  0.83984  0.07666  0.08199  1.0000
  O   O463      1.0  0.81614  0.08110  0.07846  1.0000
  O   O464      1.0  0.84775  0.05453  0.08296  1.0000
  O   O465      1.0  0.85563  0.09435  0.08455  1.0000
  C   C156      1.0  0.93780  0.11406  0.12444  1.0000
  O   O466      1.0  0.92657  0.09534  0.11354  1.0000
  O   O467      1.0  0.95975  0.11177  0.13637  1.0000
  O   O468      1.0  0.92709  0.13507  0.12341  1.0000
  C   C157      1.0  0.86835  0.93522  0.74793  1.0000
  O   O469      1.0  0.85060  0.92086  0.75652  1.0000
  O   O470      1.0  0.88097  0.94763  0.76696  1.0000
  O   O471      1.0  0.87348  0.93717  0.72030  1.0000
  C   C158      1.0  0.02682  0.73625  0.49663  1.0000
  O   O472      1.0  0.03950  0.74441  0.47453  1.0000
  O   O473      1.0  0.01249  0.75067  0.51147  1.0000
  O   O474      1.0  0.02847  0.71367  0.50389  1.0000
  C   C159      1.0  0.27519  0.97678  0.48857  1.0000
  O   O475      1.0  0.29165  0.99401  0.48952  1.0000
  O   O476      1.0  0.28228  0.95450  0.49133  1.0000
  O   O477      1.0  0.25165  0.98184  0.48486  1.0000
  C   C160      1.0  0.13518  0.26087  0.94165  1.0000
  O   O478      1.0  0.13386  0.23755  0.94374  1.0000
  O   O479      1.0  0.14031  0.27083  0.91669  1.0000
  O   O480      1.0  0.13137  0.27422  0.96452  1.0000
  C   C161      1.0  0.12220  0.05761  0.11952  1.0000
  O   O481      1.0  0.13511  0.05429  0.14323  1.0000
  O   O482      1.0  0.11526  0.07921  0.11212  1.0000
  O   O483      1.0  0.11623  0.03934  0.10321  1.0000
  C   C162      1.0  0.86980  0.01892  0.06748  1.0000
  O   O484      1.0  0.84629  0.01456  0.07252  1.0000
  O   O485      1.0  0.87770  0.02135  0.04081  1.0000
  O   O486      1.0  0.88541  0.02086  0.08911  1.0000
  C   C163      1.0  0.88884  0.06467  0.03166  1.0000
  O   O487      1.0  0.90162  0.04548  0.02516  1.0000
  O   O488      1.0  0.89618  0.08563  0.02235  1.0000
  O   O489      1.0  0.86872  0.06290  0.04746  1.0000
  C   C164      1.0  0.98517  0.05292  0.99135  1.0000
  O   O490      1.0  0.98896  0.03063  0.99885  1.0000
  O   O491      1.0  0.96504  0.06402  0.99991  1.0000
  O   O492      1.0  0.00151  0.06411  0.97529  1.0000
  C   C165      1.0  0.92080  0.20422  0.02783  1.0000
  O   O493      1.0  0.93403  0.18634  0.01796  1.0000
  O   O494      1.0  0.89971  0.20012  0.04107  1.0000
  O   O495      1.0  0.92866  0.22620  0.02446  1.0000
  C   C166      1.0  0.96138  0.09370  0.05171  1.0000
  O   O496      1.0  0.98079  0.07967  0.04978  1.0000
  O   O497      1.0  0.95696  0.10532  0.07579  1.0000
  O   O498      1.0  0.94639  0.09611  0.02956  1.0000
  C   C167      1.0  0.06693  0.04836  0.09306  1.0000
  O   O499      1.0  0.07514  0.07039  0.09222  1.0000
  O   O500      1.0  0.04892  0.04259  0.11080  1.0000
  O   O501      1.0  0.07674  0.03210  0.07616  1.0000
  C   C168      1.0  0.59924  0.14351  0.82787  1.0000
  O   O502      1.0  0.60543  0.12146  0.82161  1.0000
  O   O503      1.0  0.61646  0.15917  0.83430  1.0000
  O   O504      1.0  0.57583  0.14989  0.82770  1.0000
  C   C169      1.0  0.56862  0.86175  0.56654  1.0000
  O   O505      1.0  0.58768  0.85464  0.55116  1.0000
  O   O506      1.0  0.56212  0.84990  0.58980  1.0000
  O   O507      1.0  0.55605  0.88071  0.55866  1.0000
  C   C170      1.0  0.53335  0.82001  0.60839  1.0000
  O   O508      1.0  0.52707  0.83216  0.58527  1.0000
  O   O509      1.0  0.51627  0.81318  0.62683  1.0000
  O   O510      1.0  0.55670  0.81469  0.61307  1.0000
  C   C171      1.0  0.63162  0.98209  0.95212  1.0000
  O   O511      1.0  0.63205  0.95868  0.95254  1.0000
  O   O512      1.0  0.61035  0.99344  0.95277  1.0000
  O   O513      1.0  0.65246  0.99415  0.95105  1.0000
  C   C172      1.0  0.19797  0.96033  0.75796  1.0000
  O   O514      1.0  0.18286  0.97086  0.77617  1.0000
  O   O515      1.0  0.21765  0.94910  0.76760  1.0000
  O   O516      1.0  0.19340  0.96103  0.73011  1.0000
  C   C173      1.0  0.18823  0.04070  0.85666  1.0000
  O   O517      1.0  0.20818  0.05232  0.84857  1.0000
  O   O518      1.0  0.18029  0.04242  0.88339  1.0000
  O   O519      1.0  0.17622  0.02736  0.83802  1.0000
  C   C174      1.0  0.69106  0.16976  0.06031  1.0000
  O   O520      1.0  0.68107  0.17098  0.03449  1.0000
  O   O521      1.0  0.71425  0.16310  0.06323  1.0000
  O   O522      1.0  0.67786  0.17520  0.08321  1.0000
  C   C175      1.0  0.73545  0.14572  0.11090  1.0000
  O   O523      1.0  0.74282  0.13301  0.08868  1.0000
  O   O524      1.0  0.72681  0.13506  0.13406  1.0000
  O   O525      1.0  0.73671  0.16909  0.10996  1.0000
  C   C176      1.0  0.53821  0.01614  0.10819  1.0000
  O   O526      1.0  0.55464  0.02893  0.09414  1.0000
  O   O527      1.0  0.54527  0.00226  0.12950  1.0000
  O   O528      1.0  0.51471  0.01723  0.10093  1.0000
  C   C177      1.0  0.03889  0.85417  0.44278  1.0000
  O   O529      1.0  0.04895  0.83913  0.46109  1.0000
  O   O530      1.0  0.04652  0.87639  0.44190  1.0000
  O   O531      1.0  0.02120  0.84699  0.42536  1.0000
  C   C178      1.0  0.92268  0.95477  0.48226  1.0000
  O   O532      1.0  0.94333  0.94690  0.49384  1.0000
  O   O533      1.0  0.92296  0.97394  0.46598  1.0000
  O   O534      1.0  0.90175  0.94347  0.48695  1.0000
  C   C179      1.0  0.02367  0.96676  0.27132  1.0000
  O   O535      1.0  0.02086  0.96418  0.29932  1.0000
  O   O536      1.0  0.04460  0.97507  0.26094  1.0000
  O   O537      1.0  0.00555  0.96102  0.25370  1.0000
  C   C180      1.0  0.81293  0.03174  0.30940  1.0000
  O   O538      1.0  0.78952  0.02841  0.30281  1.0000
  O   O539      1.0  0.83031  0.02077  0.29466  1.0000
  O   O540      1.0  0.81896  0.04604  0.33073  1.0000
  C   C181      1.0  0.82993  0.87972  0.27169  1.0000
  O   O541      1.0  0.83183  0.88814  0.24531  1.0000
  O   O542      1.0  0.84993  0.87360  0.28604  1.0000
  O   O543      1.0  0.80802  0.87743  0.28372  1.0000
  C   C182      1.0  0.97122  0.58516  0.34978  1.0000
  O   O544      1.0  0.96667  0.56301  0.34225  1.0000
  O   O545      1.0  0.97413  0.59064  0.37715  1.0000
  O   O546      1.0  0.97286  0.60182  0.32994  1.0000
  C   C183      1.0  0.63847  0.52473  0.96804  1.0000
  O   O547      1.0  0.65901  0.53513  0.97656  1.0000
  O   O548      1.0  0.63743  0.51450  0.94256  1.0000
  O   O549      1.0  0.61897  0.52456  0.98501  1.0000
  C   C184      1.0  0.50937  0.39630  0.68530  1.0000
  O   O550      1.0  0.48880  0.38807  0.67390  1.0000
  O   O551      1.0  0.52318  0.41138  0.67075  1.0000
  O   O552      1.0  0.51613  0.38945  0.71125  1.0000
  C   C185      1.0  0.32615  0.71279  0.63328  1.0000
  O   O553      1.0  0.30252  0.71426  0.62677  1.0000
  O   O554      1.0  0.33908  0.73228  0.63776  1.0000
  O   O555      1.0  0.33686  0.69183  0.63532  1.0000
  C   C186      1.0  0.46154  0.04157  0.74335  1.0000
  O   O556      1.0  0.46666  0.05460  0.76615  1.0000
  O   O557      1.0  0.44872  0.02181  0.74619  1.0000
  O   O558      1.0  0.46924  0.04831  0.71771  1.0000
  C   C187      1.0  0.95337  0.10614  0.88825  1.0000
  O   O559      1.0  0.95284  0.08779  0.87065  1.0000
  O   O560      1.0  0.97459  0.11367  0.89871  1.0000
  O   O561      1.0  0.93268  0.11696  0.89539  1.0000
  C   C188      1.0  0.34989  0.65288  0.72286  1.0000
  O   O562      1.0  0.36089  0.67375  0.72182  1.0000
  O   O563      1.0  0.32568  0.65164  0.72523  1.0000
  O   O564      1.0  0.36311  0.63325  0.72153  1.0000
  C   C189      1.0  0.79340  0.66503  0.31618  1.0000
  O   O565      1.0  0.79366  0.66685  0.34446  1.0000
  O   O566      1.0  0.78481  0.64561  0.30390  1.0000
  O   O567      1.0  0.80173  0.68263  0.30018  1.0000
  C   C190      1.0  0.86723  0.37516  0.18597  1.0000
  O   O568      1.0  0.87127  0.37424  0.15802  1.0000
  O   O569      1.0  0.88160  0.36326  0.20376  1.0000
  O   O570      1.0  0.84883  0.38798  0.19613  1.0000
  C   C191      1.0  0.47055  0.25830  0.71599  1.0000
  O   O571      1.0  0.49436  0.26018  0.71060  1.0000
  O   O572      1.0  0.46064  0.23722  0.72035  1.0000
  O   O573      1.0  0.45665  0.27750  0.71702  1.0000
  C   C192      1.0  0.66762  0.78992  0.20501  1.0000
  O   O574      1.0  0.66942  0.76729  0.19806  1.0000
  O   O575      1.0  0.64683  0.80147  0.20039  1.0000
  O   O576      1.0  0.68661  0.80101  0.21658  1.0000
  C   C193      1.0  0.61410  0.87136  0.29541  1.0000
  O   O577      1.0  0.62218  0.88520  0.31626  1.0000
  O   O578      1.0  0.62901  0.85565  0.28357  1.0000
  O   O579      1.0  0.59111  0.87323  0.28641  1.0000
  C   C194      1.0  0.79775  0.37841  0.67651  1.0000
  O   O580      1.0  0.81611  0.36726  0.68931  1.0000
  O   O581      1.0  0.79268  0.37397  0.64929  1.0000
  O   O582      1.0  0.78446  0.39400  0.69092  1.0000
  C   C195      1.0  0.18231  0.66887  0.38052  1.0000
  O   O583      1.0  0.16871  0.66709  0.40394  1.0000
  O   O584      1.0  0.20609  0.66400  0.38157  1.0000
  O   O585      1.0  0.17213  0.67551  0.35605  1.0000
  C   C196      1.0  0.41094  0.12256  0.46631  1.0000
  O   O586      1.0  0.40987  0.14558  0.47134  1.0000
  O   O587      1.0  0.39969  0.10757  0.48371  1.0000
  O   O588      1.0  0.42327  0.11453  0.44388  1.0000
  C   C197      1.0  0.40535  0.23749  0.51900  1.0000
  O   O589      1.0  0.39240  0.25694  0.52363  1.0000
  O   O590      1.0  0.39399  0.21711  0.51455  1.0000
  O   O591      1.0  0.42966  0.23842  0.51881  1.0000
  C   C198      1.0  0.67632  0.20287  0.69387  1.0000
  O   O592      1.0  0.67173  0.21052  0.66760  1.0000
  O   O593      1.0  0.66051  0.20719  0.71479  1.0000
  O   O594      1.0  0.69672  0.19090  0.69922  1.0000
  C   C199      1.0  0.67622  0.15496  0.69487  1.0000
  O   O595      1.0  0.66347  0.17386  0.68717  1.0000
  O   O596      1.0  0.69322  0.14625  0.67753  1.0000
  O   O597      1.0  0.67197  0.14476  0.71992  1.0000
  C   C200      1.0  0.64051  0.98185  0.25709  1.0000
  O   O598      1.0  0.61787  0.98943  0.25223  1.0000
  O   O599      1.0  0.65835  0.98709  0.23888  1.0000
  O   O600      1.0  0.64531  0.96903  0.28016  1.0000
  C   C201      1.0  0.95292  0.08291  0.40868  1.0000
  O   O601      1.0  0.94432  0.09574  0.38718  1.0000
  O   O602      1.0  0.97055  0.06722  0.40407  1.0000
  O   O603      1.0  0.94390  0.08576  0.43480  1.0000
  C   C202      1.0  0.99633  0.54159  0.04554  1.0000
  O   O604      1.0  0.97646  0.53650  0.03036  1.0000
  O   O605      1.0  0.01326  0.52518  0.05000  1.0000
  O   O606      1.0  0.99927  0.56309  0.05625  1.0000
  C   C203      1.0  0.31430  0.75941  0.17408  1.0000
  O   O607      1.0  0.32062  0.74614  0.15190  1.0000
  O   O608      1.0  0.29830  0.75136  0.19309  1.0000
  O   O609      1.0  0.32399  0.78073  0.17725  1.0000
  C   C204      1.0  0.58841  0.43318  0.38025  1.0000
  O   O610      1.0  0.58381  0.44997  0.36122  1.0000
  O   O611      1.0  0.57638  0.43284  0.40490  1.0000
  O   O612      1.0  0.60504  0.41673  0.37463  1.0000
  C   C205      1.0  0.32133  0.59373  0.95650  1.0000
  O   O613      1.0  0.32018  0.57605  0.93795  1.0000
  O   O614      1.0  0.32218  0.61583  0.94720  1.0000
  O   O615      1.0  0.32163  0.58930  0.98435  1.0000
  C   C206      1.0  0.67220  0.94911  0.56927  1.0000
  O   O616      1.0  0.67568  0.95947  0.54416  1.0000
  O   O617      1.0  0.64990  0.94827  0.58059  1.0000
  O   O618      1.0  0.69102  0.93959  0.58306  1.0000
  C   C207      1.0  0.69223  0.92311  0.61333  1.0000
  O   O619      1.0  0.66893  0.92523  0.62110  1.0000
  O   O620      1.0  0.70015  0.90311  0.60181  1.0000
  O   O621      1.0  0.70761  0.94099  0.61708  1.0000
  C   C208      1.0  0.43337  0.68432  0.45058  1.0000
  O   O622      1.0  0.44033  0.67743  0.42471  1.0000
  O   O623      1.0  0.44510  0.70179  0.46360  1.0000
  O   O624      1.0  0.41467  0.67373  0.46343  1.0000
  C   C209      1.0  0.02566  0.09622  0.80497  1.0000
  O   O625      1.0  0.02986  0.09884  0.77721  1.0000
  O   O626      1.0  0.04069  0.10597  0.82390  1.0000
  O   O627      1.0  0.00644  0.08385  0.81380  1.0000
  C   C210      1.0  0.32153  0.29212  0.65891  1.0000
  O   O628      1.0  0.30867  0.29219  0.68299  1.0000
  O   O629      1.0  0.31868  0.30939  0.64005  1.0000
  O   O630      1.0  0.33725  0.27477  0.65369  1.0000
  C   C211      1.0  0.30488  0.37143  0.61577  1.0000
  O   O631      1.0  0.30965  0.36938  0.64347  1.0000
  O   O632      1.0  0.28536  0.36087  0.60467  1.0000
  O   O633      1.0  0.31963  0.38404  0.59917  1.0000
  C   C212      1.0  0.34588  0.38071  0.14111  1.0000
  O   O634      1.0  0.35826  0.38437  0.16512  1.0000
  O   O635      1.0  0.34596  0.39694  0.12067  1.0000
  O   O636      1.0  0.33342  0.36082  0.13754  1.0000
  C   C213      1.0  0.92466  0.63433  0.50913  1.0000
  O   O637      1.0  0.94023  0.65163  0.50313  1.0000
  O   O638      1.0  0.91025  0.63588  0.53191  1.0000
  O   O639      1.0  0.92350  0.61549  0.49235  1.0000
  C   C214      1.0  0.44198  0.63587  0.27815  1.0000
  O   O640      1.0  0.44121  0.63388  0.30640  1.0000
  O   O641      1.0  0.42610  0.64974  0.26476  1.0000
  O   O642      1.0  0.45863  0.62399  0.26330  1.0000
  C   C215      1.0  0.61941  0.61607  0.28204  1.0000
  O   O643      1.0  0.62926  0.61516  0.30795  1.0000
  O   O644      1.0  0.60894  0.63583  0.27295  1.0000
  O   O645      1.0  0.62003  0.59723  0.26522  1.0000
  C   C216      1.0  0.52775  0.58558  0.28086  1.0000
  O   O646      1.0  0.51612  0.56926  0.26570  1.0000
  O   O647      1.0  0.51603  0.60498  0.28895  1.0000
  O   O648      1.0  0.55110  0.58250  0.28793  1.0000
  C   C217      1.0  0.50280  0.65160  0.31650  1.0000
  O   O649      1.0  0.49815  0.67059  0.33218  1.0000
  O   O650      1.0  0.52042  0.63678  0.32429  1.0000
  O   O651      1.0  0.48984  0.64743  0.29303  1.0000
  C   C218      1.0  0.47963  0.59807  0.21878  1.0000
  O   O652      1.0  0.48523  0.59397  0.24593  1.0000
  O   O653      1.0  0.46478  0.61576  0.21205  1.0000
  O   O654      1.0  0.48889  0.58448  0.19836  1.0000
  C   C219      1.0  0.43433  0.54839  0.15575  1.0000
  O   O655      1.0  0.42278  0.54252  0.13182  1.0000
  O   O656      1.0  0.42531  0.54179  0.18085  1.0000
  O   O657      1.0  0.45490  0.56086  0.15458  1.0000
  C   C220      1.0  0.49230  0.68629  0.24036  1.0000
  O   O658      1.0  0.50482  0.67684  0.21890  1.0000
  O   O659      1.0  0.49202  0.70952  0.24388  1.0000
  O   O660      1.0  0.48006  0.67250  0.25830  1.0000
  C   C221      1.0  0.51294  0.62772  0.13696  1.0000
  O   O661      1.0  0.49064  0.63505  0.12991  1.0000
  O   O662      1.0  0.53085  0.64326  0.14077  1.0000
  O   O663      1.0  0.51734  0.60485  0.14021  1.0000
  C   C222      1.0  0.59735  0.53689  0.77546  1.0000
  O   O664      1.0  0.58981  0.51477  0.77243  1.0000
  O   O665      1.0  0.61915  0.54332  0.76556  1.0000
  O   O666      1.0  0.58309  0.55258  0.78839  1.0000
  C   C223      1.0  0.49088  0.59800  0.03379  1.0000
  O   O667      1.0  0.48081  0.61700  0.04550  1.0000
  O   O668      1.0  0.48853  0.57714  0.04637  1.0000
  O   O669      1.0  0.50330  0.59987  0.00950  1.0000
  C   C224      1.0  0.49615  0.52943  0.17771  1.0000
  O   O670      1.0  0.49194  0.50637  0.17840  1.0000
  O   O671      1.0  0.48269  0.54325  0.16104  1.0000
  O   O672      1.0  0.51381  0.53866  0.19369  1.0000
  C   C225      1.0  0.13577  0.49224  0.58523  1.0000
  O   O673      1.0  0.14628  0.51118  0.57391  1.0000
  O   O674      1.0  0.11870  0.49468  0.60522  1.0000
  O   O675      1.0  0.14233  0.47086  0.57656  1.0000
  C   C226      1.0  0.18295  0.44679  0.53950  1.0000
  O   O676      1.0  0.18871  0.42878  0.52266  1.0000
  O   O677      1.0  0.18342  0.44419  0.56768  1.0000
  O   O678      1.0  0.17672  0.46740  0.52816  1.0000
  C   C227      1.0  0.21060  0.48695  0.51688  1.0000
  O   O679      1.0  0.20164  0.50854  0.52025  1.0000
  O   O680      1.0  0.21073  0.47198  0.53869  1.0000
  O   O681      1.0  0.21942  0.48032  0.49169  1.0000
  C   C228      1.0  0.16861  0.54979  0.55420  1.0000
  O   O682      1.0  0.17181  0.54105  0.58025  1.0000
  O   O683      1.0  0.14639  0.55017  0.54265  1.0000
  O   O684      1.0  0.18763  0.55815  0.53970  1.0000
  C   C229      1.0  0.37453  0.09714  0.70470  1.0000
  O   O685      1.0  0.36211  0.07842  0.69573  1.0000
  O   O686      1.0  0.39883  0.09736  0.70316  1.0000
  O   O687      1.0  0.36266  0.11564  0.71521  1.0000
  C   C230      1.0  0.19433  0.38569  0.85486  1.0000
  O   O688      1.0  0.19698  0.37172  0.83231  1.0000
  O   O689      1.0  0.17243  0.39443  0.86126  1.0000
  O   O690      1.0  0.21358  0.39092  0.87101  1.0000
  C   C231      1.0  0.91584  0.91035  0.92195  1.0000
  O   O691      1.0  0.93101  0.92806  0.91634  1.0000
  O   O692      1.0  0.91001  0.89509  0.90154  1.0000
  O   O693      1.0  0.90649  0.90790  0.94797  1.0000
  C   C232      1.0  0.16842  0.10785  0.39322  1.0000
  O   O694      1.0  0.15300  0.09779  0.41147  1.0000
  O   O695      1.0  0.16592  0.10419  0.36535  1.0000
  O   O696      1.0  0.18634  0.12156  0.40283  1.0000
  C   C233      1.0  0.22222  0.13291  0.82657  1.0000
  O   O697      1.0  0.22625  0.14972  0.80739  1.0000
  O   O698      1.0  0.20758  0.13703  0.84867  1.0000
  O   O699      1.0  0.23283  0.11198  0.82365  1.0000
  C   C234      1.0  0.60315  0.36414  0.29925  1.0000
  O   O700      1.0  0.60072  0.34182  0.29114  1.0000
  O   O701      1.0  0.61938  0.37797  0.28638  1.0000
  O   O702      1.0  0.58935  0.37262  0.32023  1.0000
  C   C235      1.0  0.37724  0.52502  0.39582  1.0000
  O   O703      1.0  0.39951  0.53267  0.38914  1.0000
  O   O704      1.0  0.35962  0.54035  0.40197  1.0000
  O   O705      1.0  0.37259  0.50204  0.39635  1.0000
  C   C236      1.0  0.20421  0.91654  0.17637  1.0000
  O   O706      1.0  0.18035  0.91887  0.18115  1.0000
  O   O707      1.0  0.21527  0.89617  0.18179  1.0000
  O   O708      1.0  0.21701  0.93458  0.16617  1.0000
  C   C237      1.0  0.29532  0.37890  0.39502  1.0000
  O   O709      1.0  0.30354  0.35720  0.39968  1.0000
  O   O710      1.0  0.31104  0.39644  0.39088  1.0000
  O   O711      1.0  0.27138  0.38306  0.39450  1.0000
  C   C238      1.0  0.35101  0.30193  0.40024  1.0000
  O   O712      1.0  0.36661  0.31231  0.38247  1.0000
  O   O713      1.0  0.35145  0.30715  0.42789  1.0000
  O   O714      1.0  0.33496  0.28633  0.39036  1.0000
  C   C239      1.0  0.57759  0.69151  0.68048  1.0000
  O   O715      1.0  0.56683  0.71226  0.67653  1.0000
  O   O716      1.0  0.56521  0.67174  0.67573  1.0000
  O   O717      1.0  0.60073  0.69054  0.68918  1.0000
  C   C240      1.0  0.84079  0.77066  0.77491  1.0000
  O   O718      1.0  0.85102  0.75350  0.79009  1.0000
  O   O719      1.0  0.83663  0.79153  0.78683  1.0000
  O   O720      1.0  0.83472  0.76695  0.74781  1.0000
  C   C241      1.0  0.35641  0.51785  0.54550  1.0000
  O   O721      1.0  0.34719  0.52803  0.52233  1.0000
  O   O722      1.0  0.34156  0.51026  0.56600  1.0000
  O   O723      1.0  0.38048  0.51525  0.54817  1.0000
  C   C242      1.0  0.53822  0.93235  0.92998  1.0000
  O   O724      1.0  0.53319  0.91633  0.94981  1.0000
  O   O725      1.0  0.52650  0.93191  0.90513  1.0000
  O   O726      1.0  0.55498  0.94881  0.93500  1.0000
  C   C243      1.0  0.95412  0.63976  0.35119  1.0000
  O   O727      1.0  0.95791  0.65709  0.36975  1.0000
  O   O728      1.0  0.95909  0.64299  0.32370  1.0000
  O   O729      1.0  0.94535  0.61920  0.36012  1.0000
  C   C244      1.0  0.92543  0.25776  0.43442  1.0000
  O   O730      1.0  0.90637  0.26625  0.44874  1.0000
  O   O731      1.0  0.93371  0.23623  0.44002  1.0000
  O   O732      1.0  0.93622  0.27080  0.41450  1.0000
  C   C245      1.0  0.19107  0.12892  0.04175  1.0000
  O   O733      1.0  0.17001  0.12148  0.03077  1.0000
  O   O734      1.0  0.20614  0.14201  0.02611  1.0000
  O   O735      1.0  0.19706  0.12327  0.06838  1.0000
  C   C246      1.0  0.21841  0.23820  0.35559  1.0000
  O   O736      1.0  0.19841  0.25120  0.35919  1.0000
  O   O737      1.0  0.21896  0.21612  0.36502  1.0000
  O   O738      1.0  0.23786  0.24727  0.34256  1.0000
  C   C247      1.0  0.42725  0.99645  0.81275  1.0000
  O   O739      1.0  0.41230  0.00187  0.83414  1.0000
  O   O740      1.0  0.43845  0.97567  0.81231  1.0000
  O   O741      1.0  0.43100  0.01181  0.79180  1.0000
  C   C248      1.0  0.41442  0.93206  0.82196  1.0000
  O   O742      1.0  0.39295  0.92797  0.80957  1.0000
  O   O743      1.0  0.43506  0.92676  0.80838  1.0000
  O   O744      1.0  0.41525  0.94145  0.84793  1.0000
  C   C249      1.0  0.49598  0.30656  0.48529  1.0000
  O   O745      1.0  0.47353  0.30870  0.47466  1.0000
  O   O746      1.0  0.51497  0.31554  0.47129  1.0000
  O   O747      1.0  0.49943  0.29544  0.50992  1.0000
  C   C250      1.0  0.51061  0.91836  0.60209  1.0000
  O   O748      1.0  0.52281  0.92200  0.57794  1.0000
  O   O749      1.0  0.48634  0.91670  0.60173  1.0000
  O   O750      1.0  0.52268  0.91638  0.62660  1.0000
  C   C251      1.0  0.03119  0.91543  0.83247  1.0000
  O   O751      1.0  0.04004  0.89743  0.81755  1.0000
  O   O752      1.0  0.03219  0.91511  0.86081  1.0000
  O   O753      1.0  0.02134  0.93375  0.81905  1.0000
  C   C252      1.0  0.32569  0.85943  0.17210  1.0000
  O   O754      1.0  0.31605  0.85904  0.14606  1.0000
  O   O755      1.0  0.33623  0.84022  0.18267  1.0000
  O   O756      1.0  0.32479  0.87904  0.18757  1.0000
  C   C253      1.0  0.76511  0.99114  0.86419  1.0000
  O   O757      1.0  0.75358  0.99470  0.88879  1.0000
  O   O758      1.0  0.77908  0.00801  0.85316  1.0000
  O   O759      1.0  0.76267  0.97071  0.85062  1.0000
  C   C254      1.0  0.39883  0.02846  0.34242  1.0000
  O   O760      1.0  0.38822  0.04927  0.34640  1.0000
  O   O761      1.0  0.41008  0.02380  0.31791  1.0000
  O   O762      1.0  0.39819  0.01231  0.36294  1.0000
  C   C255      1.0  0.30168  0.41727  0.31900  1.0000
  O   O763      1.0  0.32505  0.41767  0.31111  1.0000
  O   O764      1.0  0.28603  0.43280  0.30814  1.0000
  O   O765      1.0  0.29396  0.40135  0.33775  1.0000
  C   C256      1.0  0.32783  0.36783  0.27597  1.0000
  O   O766      1.0  0.30535  0.35981  0.27110  1.0000
  O   O767      1.0  0.33204  0.39089  0.27649  1.0000
  O   O768      1.0  0.34610  0.35279  0.28032  1.0000
  C   C257      1.0  0.24999  0.38676  0.23837  1.0000
  O   O769      1.0  0.24704  0.40604  0.25409  1.0000
  O   O770      1.0  0.25903  0.36730  0.25011  1.0000
  O   O771      1.0  0.24390  0.38693  0.21091  1.0000
  C   C258      1.0  0.69830  0.50201  0.98071  1.0000
  O   O772      1.0  0.69944  0.52259  0.96725  1.0000
  O   O773      1.0  0.67669  0.49232  0.98636  1.0000
  O   O774      1.0  0.71877  0.49112  0.98852  1.0000
  C   C259      1.0  0.51318  0.47637  0.60806  1.0000
  O   O775      1.0  0.53596  0.46814  0.60815  1.0000
  O   O776      1.0  0.49609  0.46601  0.62388  1.0000
  O   O777      1.0  0.50749  0.49496  0.59214  1.0000
  C   C260      1.0  0.63239  0.63918  0.10794  1.0000
  O   O778      1.0  0.63033  0.61629  0.11340  1.0000
  O   O779      1.0  0.65248  0.65074  0.11568  1.0000
  O   O780      1.0  0.61436  0.65051  0.09474  1.0000
  C   C261      1.0  0.87704  0.62771  0.38793  1.0000
  O   O781      1.0  0.88025  0.63983  0.41191  1.0000
  O   O782      1.0  0.86511  0.60731  0.38846  1.0000
  O   O783      1.0  0.88576  0.63599  0.36342  1.0000
  C   C262      1.0  0.65402  0.54802  0.10407  1.0000
  O   O784      1.0  0.66979  0.55805  0.08622  1.0000
  O   O785      1.0  0.63705  0.56101  0.11694  1.0000
  O   O786      1.0  0.65522  0.52500  0.10905  1.0000
  C   C263      1.0  0.67532  0.47904  0.03471  1.0000
  O   O787      1.0  0.69964  0.47826  0.03454  1.0000
  O   O788      1.0  0.66245  0.45942  0.03090  1.0000
  O   O789      1.0  0.66387  0.49944  0.03868  1.0000
  C   C264      1.0  0.50797  0.50678  0.81573  1.0000
  O   O790      1.0  0.51273  0.52964  0.81309  1.0000
  O   O791      1.0  0.52207  0.49336  0.83217  1.0000
  O   O792      1.0  0.48911  0.49734  0.80193  1.0000
  C   C265      1.0  0.52780  0.48523  0.76196  1.0000
  O   O793      1.0  0.50464  0.48737  0.75365  1.0000
  O   O794      1.0  0.53805  0.46404  0.76352  1.0000
  O   O795      1.0  0.54070  0.50428  0.76870  1.0000
  C   C266      1.0  0.54477  0.75019  0.88471  1.0000
  O   O796      1.0  0.55077  0.73411  0.86532  1.0000
  O   O797      1.0  0.52308  0.74923  0.89750  1.0000
  O   O798      1.0  0.56046  0.76724  0.89131  1.0000
  C   C267      1.0  0.30656  0.20093  0.51947  1.0000
  O   O799      1.0  0.30854  0.22187  0.50698  1.0000
  O   O800      1.0  0.31512  0.19776  0.54574  1.0000
  O   O801      1.0  0.29602  0.18316  0.50568  1.0000
  C   C268      1.0  0.00569  0.76027  0.13670  1.0000
  O   O802      1.0  0.01951  0.77874  0.13005  1.0000
  O   O803      1.0  0.98304  0.76348  0.14633  1.0000
  O   O804      1.0  0.01452  0.73859  0.13373  1.0000
  C   C269      1.0  0.50234  0.65664  0.96725  1.0000
  O   O805      1.0  0.51962  0.66102  0.94800  1.0000
  O   O806      1.0  0.48365  0.67142  0.97029  1.0000
  O   O807      1.0  0.50374  0.63747  0.98346  1.0000
  C   C270      1.0  0.58830  0.74457  0.69935  1.0000
  O   O808      1.0  0.60376  0.72745  0.70643  1.0000
  O   O809      1.0  0.57363  0.75385  0.71899  1.0000
  O   O810      1.0  0.58752  0.75240  0.67264  1.0000
  C   C271      1.0  0.66469  0.71444  0.71754  1.0000
  O   O811      1.0  0.67929  0.70396  0.69874  1.0000
  O   O812      1.0  0.64064  0.71483  0.71324  1.0000
  O   O813      1.0  0.67414  0.72454  0.74064  1.0000
  C   C272      1.0  0.34913  0.09527  0.51670  1.0000
  O   O814      1.0  0.34019  0.10456  0.49284  1.0000
  O   O815      1.0  0.33411  0.08556  0.53566  1.0000
  O   O816      1.0  0.37309  0.09568  0.52160  1.0000
  C   C273      1.0  0.26130  0.93838  0.74676  1.0000
  O   O817      1.0  0.25815  0.93922  0.71865  1.0000
  O   O818      1.0  0.25677  0.91855  0.76089  1.0000
  O   O819      1.0  0.26897  0.95737  0.76074  1.0000
  C   C274      1.0  0.57560  0.36194  0.99977  1.0000
  O   O820      1.0  0.55250  0.35458  0.99985  1.0000
  O   O821      1.0  0.58102  0.38352  0.00880  1.0000
  O   O822      1.0  0.59328  0.34772  0.99067  1.0000
  C   C275      1.0  0.48116  0.07879  0.15556  1.0000
  O   O823      1.0  0.47779  0.05560  0.15505  1.0000
  O   O824      1.0  0.46668  0.09279  0.14032  1.0000
  O   O825      1.0  0.49900  0.08798  0.17131  1.0000
  C   C276      1.0  0.99692  0.24652  0.16894  1.0000
  O   O826      1.0  0.00629  0.25603  0.19245  1.0000
  O   O827      1.0  0.97382  0.23915  0.16871  1.0000
  O   O828      1.0  0.01064  0.24438  0.14566  1.0000
  C   C277      1.0  0.11500  0.24165  0.27417  1.0000
  O   O829      1.0  0.11178  0.26482  0.27260  1.0000
  O   O830      1.0  0.13437  0.23294  0.28772  1.0000
  O   O831      1.0  0.09886  0.22719  0.26219  1.0000
  C   C278      1.0  0.04960  0.21324  0.29119  1.0000
  O   O832      1.0  0.05756  0.20577  0.31642  1.0000
  O   O833      1.0  0.06212  0.20814  0.26767  1.0000
  O   O834      1.0  0.02912  0.22581  0.28948  1.0000
  C   C279      1.0  0.01966  0.51418  0.45678  1.0000
  O   O835      1.0  0.02929  0.49372  0.44874  1.0000
  O   O836      1.0  0.99554  0.51636  0.45942  1.0000
  O   O837      1.0  0.03415  0.53245  0.46217  1.0000
  C   C280      1.0  0.48075  0.74562  0.87245  1.0000
  O   O838      1.0  0.49105  0.76675  0.87020  1.0000
  O   O839      1.0  0.46457  0.73854  0.85308  1.0000
  O   O840      1.0  0.48663  0.73157  0.89408  1.0000
  C   C281      1.0  0.21052  0.37933  0.49317  1.0000
  O   O841      1.0  0.19897  0.38061  0.46825  1.0000
  O   O842      1.0  0.20064  0.38904  0.51627  1.0000
  O   O843      1.0  0.23195  0.36834  0.49499  1.0000
  C   C282      1.0  0.69276  0.40684  0.34809  1.0000
  O   O844      1.0  0.69292  0.38773  0.33171  1.0000
  O   O845      1.0  0.67332  0.42093  0.34826  1.0000
  O   O846      1.0  0.71203  0.41187  0.36430  1.0000
  C   C283      1.0  0.26921  0.82907  0.34111  1.0000
  O   O847      1.0  0.26847  0.83452  0.31354  1.0000
  O   O848      1.0  0.26957  0.80663  0.34918  1.0000
  O   O849      1.0  0.26959  0.84607  0.36062  1.0000
  C   C284      1.0  0.67140  0.93856  0.35030  1.0000
  O   O850      1.0  0.69246  0.93546  0.36400  1.0000
  O   O851      1.0  0.65115  0.92822  0.35980  1.0000
  O   O852      1.0  0.67059  0.95200  0.32709  1.0000
  C   C285      1.0  0.50100  0.97363  0.46701  1.0000
  O   O853      1.0  0.49024  0.95829  0.48439  1.0000
  O   O854      1.0  0.48862  0.98270  0.44520  1.0000
  O   O855      1.0  0.52414  0.97990  0.47143  1.0000
  C   C286      1.0  0.10349  0.84194  0.42521  1.0000
  O   O856      1.0  0.10787  0.83522  0.39852  1.0000
  O   O857      1.0  0.09662  0.82617  0.44458  1.0000
  O   O858      1.0  0.10598  0.86444  0.43252  1.0000
  C   C287      1.0  0.09834  0.75155  0.55282  1.0000
  O   O859      1.0  0.09038  0.76637  0.53291  1.0000
  O   O860      1.0  0.12210  0.75028  0.55873  1.0000
  O   O861      1.0  0.08253  0.73801  0.56682  1.0000
  C   C288      1.0  0.85901  0.05206  0.56644  1.0000
  O   O862      1.0  0.87078  0.05169  0.54162  1.0000
  O   O863      1.0  0.84800  0.03272  0.57597  1.0000
  O   O864      1.0  0.85826  0.07177  0.58173  1.0000
  C   C289      1.0  0.88580  0.95237  0.52649  1.0000
  O   O865      1.0  0.87780  0.93133  0.51826  1.0000
  O   O866      1.0  0.90554  0.95406  0.54295  1.0000
  O   O867      1.0  0.87406  0.97172  0.51826  1.0000
  C   C290      1.0  0.09873  0.64665  0.64774  1.0000
  O   O868      1.0  0.07560  0.64899  0.63939  1.0000
  O   O869      1.0  0.11680  0.64936  0.62903  1.0000
  O   O870      1.0  0.10379  0.64160  0.67480  1.0000
  C   C291      1.0  0.67466  0.26406  0.70306  1.0000
  O   O871      1.0  0.69832  0.26621  0.69699  1.0000
  O   O872      1.0  0.66218  0.28248  0.71281  1.0000
  O   O873      1.0  0.66348  0.24349  0.69938  1.0000
  C   C292      1.0  0.78447  0.75180  0.25781  1.0000
  O   O874      1.0  0.77965  0.77232  0.24535  1.0000
  O   O875      1.0  0.80552  0.74087  0.25262  1.0000
  O   O876      1.0  0.76824  0.74222  0.27546  1.0000
  C   C293      1.0  0.77709  0.65605  0.89696  1.0000
  O   O877      1.0  0.79287  0.66393  0.91632  1.0000
  O   O878      1.0  0.77566  0.66641  0.87158  1.0000
  O   O879      1.0  0.76274  0.63780  0.90298  1.0000
  C   C294      1.0  0.16129  0.88408  0.23091  1.0000
  O   O880      1.0  0.16141  0.87327  0.25607  1.0000
  O   O881      1.0  0.18087  0.89604  0.22233  1.0000
  O   O882      1.0  0.14159  0.88293  0.21433  1.0000
  C   C295      1.0  0.99880  0.25128  0.33426  1.0000
  O   O883      1.0  0.98331  0.23344  0.33766  1.0000
  O   O884      1.0  0.99035  0.27318  0.33229  1.0000
  O   O885      1.0  0.02273  0.24722  0.33283  1.0000
  C   C296      1.0  0.76566  0.75986  0.39389  1.0000
  O   O886      1.0  0.76561  0.78297  0.39842  1.0000
  O   O887      1.0  0.77567  0.74547  0.41298  1.0000
  O   O888      1.0  0.75570  0.75113  0.37027  1.0000
  C   C297      1.0  0.78848  0.68621  0.40183  1.0000
  O   O889      1.0  0.77714  0.66826  0.38930  1.0000
  O   O890      1.0  0.80254  0.68246  0.42453  1.0000
  O   O891      1.0  0.78576  0.70791  0.39166  1.0000
  C   C298      1.0  0.74563  0.69887  0.30252  1.0000
  O   O892      1.0  0.74677  0.72006  0.31451  1.0000
  O   O893      1.0  0.76386  0.69137  0.28607  1.0000
  O   O894      1.0  0.72626  0.68518  0.30698  1.0000
  C   C299      1.0  0.62830  0.75193  0.13599  1.0000
  O   O895      1.0  0.64021  0.73167  0.13291  1.0000
  O   O896      1.0  0.60827  0.75614  0.12071  1.0000
  O   O897      1.0  0.63642  0.76798  0.15435  1.0000
  C   C300      1.0  0.01813  0.13089  0.02959  1.0000
  O   O898      1.0  0.99713  0.11929  0.03244  1.0000
  O   O899      1.0  0.02640  0.14422  0.05082  1.0000
  O   O900      1.0  0.03086  0.12915  0.00551  1.0000
  C   C301      1.0  0.99004  0.23287  0.99822  1.0000
  O   O901      1.0  0.98543  0.24118  0.97225  1.0000
  O   O902      1.0  0.99980  0.24685  0.01792  1.0000
  O   O903      1.0  0.98489  0.21058  0.00449  1.0000
  C   C302      1.0  0.53388  0.15350  0.11660  1.0000
  O   O904      1.0  0.54448  0.16801  0.09808  1.0000
  O   O905      1.0  0.54480  0.13342  0.12373  1.0000
  O   O906      1.0  0.51236  0.15907  0.12799  1.0000
  C   C303      1.0  0.63251  0.19470  0.11361  1.0000
  O   O907      1.0  0.61764  0.18095  0.09855  1.0000
  O   O908      1.0  0.62796  0.21764  0.11571  1.0000
  O   O909      1.0  0.65193  0.18551  0.12657  1.0000
  C   C304      1.0  0.57664  0.20995  0.21067  1.0000
  O   O910      1.0  0.58606  0.21783  0.18632  1.0000
  O   O911      1.0  0.57502  0.22420  0.23310  1.0000
  O   O912      1.0  0.56885  0.18783  0.21259  1.0000
  C   C305      1.0  0.50362  0.93754  0.27971  1.0000
  O   O913      1.0  0.47947  0.93567  0.28236  1.0000
  O   O914      1.0  0.51703  0.91851  0.27434  1.0000
  O   O915      1.0  0.51435  0.95843  0.28243  1.0000
  C   C306      1.0  0.69337  0.52411  0.50150  1.0000
  O   O916      1.0  0.68246  0.52000  0.52636  1.0000
  O   O917      1.0  0.70914  0.54182  0.49902  1.0000
  O   O918      1.0  0.68851  0.51050  0.47912  1.0000
  C   C307      1.0  0.62632  0.30654  0.79458  1.0000
  O   O919      1.0  0.60957  0.31721  0.77858  1.0000
  O   O920      1.0  0.63391  0.31651  0.81867  1.0000
  O   O921      1.0  0.63548  0.28590  0.78649  1.0000
  C   C308      1.0  0.59818  0.35983  0.82047  1.0000
  O   O922      1.0  0.59479  0.33750  0.81289  1.0000
  O   O923      1.0  0.59944  0.36558  0.84793  1.0000
  O   O924      1.0  0.60030  0.37641  0.80060  1.0000
  C   C309      1.0  0.01845  0.08297  0.45974  1.0000
  O   O925      1.0  0.02648  0.10421  0.45232  1.0000
  O   O926      1.0  0.02320  0.06447  0.44325  1.0000
  O   O927      1.0  0.00567  0.08023  0.48365  1.0000
  C   C310      1.0  0.21336  0.39016  0.78741  1.0000
  O   O928      1.0  0.20006  0.39992  0.76681  1.0000
  O   O929      1.0  0.21868  0.36733  0.78640  1.0000
  O   O930      1.0  0.22135  0.40323  0.80902  1.0000
  C   C311      1.0  0.19932  0.32924  0.78406  1.0000
  O   O931      1.0  0.22292  0.32939  0.77715  1.0000
  O   O932      1.0  0.18833  0.34910  0.79190  1.0000
  O   O933      1.0  0.18671  0.30923  0.78313  1.0000
  C   C312      1.0  0.10421  0.53378  0.82236  1.0000
  O   O934      1.0  0.09076  0.53447  0.79874  1.0000
  O   O935      1.0  0.09338  0.53362  0.84776  1.0000
  O   O936      1.0  0.12849  0.53325  0.82058  1.0000
  C   C313      1.0  0.16622  0.53346  0.74892  1.0000
  O   O937      1.0  0.15877  0.51397  0.76202  1.0000
  O   O938      1.0  0.15059  0.54586  0.73320  1.0000
  O   O939      1.0  0.18930  0.54055  0.75154  1.0000
  C   C314      1.0  0.10406  0.50014  0.76814  1.0000
  O   O940      1.0  0.08313  0.49332  0.75627  1.0000
  O   O941      1.0  0.10836  0.49564  0.79552  1.0000
  O   O942      1.0  0.12069  0.51146  0.75263  1.0000
  C   C315      1.0  0.33141  0.82995  0.28371  1.0000
  O   O943      1.0  0.33973  0.85194  0.28465  1.0000
  O   O944      1.0  0.32871  0.81916  0.25873  1.0000
  O   O945      1.0  0.32580  0.81875  0.30774  1.0000
  C   C316      1.0  0.46829  0.37780  0.19852  1.0000
  O   O946      1.0  0.48840  0.36515  0.20303  1.0000
  O   O947      1.0  0.44648  0.36899  0.20517  1.0000
  O   O948      1.0  0.46999  0.39926  0.18736  1.0000
  C   C317      1.0  0.84140  0.87116  0.43846  1.0000
  O   O949      1.0  0.83833  0.89224  0.45026  1.0000
  O   O950      1.0  0.85952  0.85728  0.44716  1.0000
  O   O951      1.0  0.82634  0.86395  0.41796  1.0000
  C   C318      1.0  0.76931  0.80289  0.49862  1.0000
  O   O952      1.0  0.76553  0.77983  0.50074  1.0000
  O   O953      1.0  0.78317  0.81136  0.47769  1.0000
  O   O954      1.0  0.75923  0.81748  0.51743  1.0000
  C   C319      1.0  0.43324  0.55565  0.77761  1.0000
  O   O955      1.0  0.42545  0.56818  0.75544  1.0000
  O   O956      1.0  0.41806  0.55082  0.79900  1.0000
  O   O957      1.0  0.45621  0.54795  0.77840  1.0000
  C   C320      1.0  0.68379  0.41168  0.49926  1.0000
  O   O958      1.0  0.68043  0.39186  0.48467  1.0000
  O   O959      1.0  0.67359  0.41429  0.52482  1.0000
  O   O960      1.0  0.69735  0.42888  0.48829  1.0000
  C   C321      1.0  0.86707  0.47008  0.04376  1.0000
  O   O961      1.0  0.84945  0.45812  0.05690  1.0000
  O   O962      1.0  0.87274  0.49171  0.05238  1.0000
  O   O963      1.0  0.87902  0.46041  0.02200  1.0000
  C   C322      1.0  0.78098  0.44416  0.71604  1.0000
  O   O964      1.0  0.76809  0.46240  0.72556  1.0000
  O   O965      1.0  0.78102  0.42402  0.73050  1.0000
  O   O966      1.0  0.79383  0.44606  0.69206  1.0000
  C   C323      1.0  0.63939  0.42481  0.74134  1.0000
  O   O967      1.0  0.62893  0.40928  0.72397  1.0000
  O   O968      1.0  0.64066  0.42045  0.76917  1.0000
  O   O969      1.0  0.64858  0.44470  0.73088  1.0000
  C   C324      1.0  0.60767  0.45831  0.79021  1.0000
  O   O970      1.0  0.60016  0.44236  0.80904  1.0000
  O   O971      1.0  0.63027  0.45726  0.77978  1.0000
  O   O972      1.0  0.59257  0.47531  0.78181  1.0000
  C   C325      1.0  0.68429  0.40569  0.68238  1.0000
  O   O973      1.0  0.70174  0.41282  0.70016  1.0000
  O   O974      1.0  0.66734  0.39057  0.69126  1.0000
  O   O975      1.0  0.68379  0.41368  0.65572  1.0000
  C   C326      1.0  0.66430  0.50178  0.72370  1.0000
  O   O976      1.0  0.68746  0.49462  0.72445  1.0000
  O   O977      1.0  0.65709  0.51705  0.70391  1.0000
  O   O978      1.0  0.64835  0.49367  0.74274  1.0000
  C   C327      1.0  0.47933  0.38544  0.39609  1.0000
  O   O979      1.0  0.49292  0.36802  0.38570  1.0000
  O   O980      1.0  0.45517  0.38301  0.39784  1.0000
  O   O981      1.0  0.48989  0.40529  0.40473  1.0000
  C   C328      1.0  0.61858  0.44826  0.28133  1.0000
  O   O982      1.0  0.59500  0.44970  0.27456  1.0000
  O   O983      1.0  0.63422  0.46437  0.27176  1.0000
  O   O984      1.0  0.62653  0.43072  0.29767  1.0000
  C   C329      1.0  0.28968  0.68960  0.69012  1.0000
  O   O985      1.0  0.28875  0.67525  0.71251  1.0000
  O   O986      1.0  0.27325  0.70672  0.68733  1.0000
  O   O987      1.0  0.30704  0.68683  0.67052  1.0000
  C   C330      1.0  0.28679  0.61698  0.71289  1.0000
  O   O988      1.0  0.30999  0.61101  0.71743  1.0000
  O   O989      1.0  0.27747  0.63591  0.72556  1.0000
  O   O990      1.0  0.27291  0.60402  0.69568  1.0000
  C   C331      1.0  0.69299  0.28417  0.33319  1.0000
  O   O991      1.0  0.68595  0.27303  0.35675  1.0000
  O   O992      1.0  0.71260  0.29802  0.33369  1.0000
  O   O993      1.0  0.68042  0.28146  0.30913  1.0000
  C   C332      1.0  0.78468  0.31368  0.36619  1.0000
  O   O994      1.0  0.76916  0.30641  0.38619  1.0000
  O   O995      1.0  0.79272  0.33578  0.36634  1.0000
  O   O996      1.0  0.79215  0.29885  0.34604  1.0000
  C   C333      1.0  0.27789  0.14379  0.01695  1.0000
  O   O997      1.0  0.26505  0.12423  0.02131  1.0000
  O   O998      1.0  0.28975  0.14687  0.99247  1.0000
  O   O999      1.0  0.27887  0.16026  0.03707  1.0000
  C   C334      1.0  0.18924  0.19177  0.01513  1.0000
  O   O1000     1.0  0.20308  0.20111  0.03554  1.0000
  O   O1001     1.0  0.17891  0.17081  0.01901  1.0000
  O   O1002     1.0  0.18573  0.20339  0.99085  1.0000
  C   C335      1.0  0.12592  0.13089  0.09748  1.0000
  O   O1003     1.0  0.13349  0.15269  0.10286  1.0000
  O   O1004     1.0  0.10382  0.12400  0.10593  1.0000
  O   O1005     1.0  0.14045  0.11597  0.08365  1.0000
  C   C336      1.0  0.07309  0.15118  0.04636  1.0000
  O   O1006     1.0  0.06832  0.13007  0.05729  1.0000
  O   O1007     1.0  0.06416  0.15707  0.02096  1.0000
  O   O1008     1.0  0.08679  0.16640  0.06084  1.0000
  C   C337      1.0  0.22128  0.07048  0.28576  1.0000
  O   O1009     1.0  0.23570  0.07448  0.26344  1.0000
  O   O1010     1.0  0.20002  0.05946  0.28222  1.0000
  O   O1011     1.0  0.22811  0.07750  0.31162  1.0000
  C   C338      1.0  0.23903  0.97223  0.30987  1.0000
  O   O1012     1.0  0.24518  0.94968  0.30730  1.0000
  O   O1013     1.0  0.24869  0.98522  0.33061  1.0000
  O   O1014     1.0  0.22321  0.98180  0.29170  1.0000
  C   C339      1.0  0.85467  0.60142  0.52487  1.0000
  O   O1015     1.0  0.84223  0.58156  0.52885  1.0000
  O   O1016     1.0  0.84512  0.61862  0.50917  1.0000
  O   O1017     1.0  0.87666  0.60407  0.53658  1.0000
  C   C340      1.0  0.44222  0.79021  0.10855  1.0000
  O   O1018     1.0  0.42087  0.78401  0.11991  1.0000
  O   O1019     1.0  0.44880  0.78180  0.08322  1.0000
  O   O1020     1.0  0.45698  0.80482  0.12252  1.0000
  C   C341      1.0  0.92825  0.92553  0.79304  1.0000
  O   O1021     1.0  0.93685  0.94123  0.81154  1.0000
  O   O1022     1.0  0.94301  0.91633  0.77343  1.0000
  O   O1023     1.0  0.90489  0.91903  0.79415  1.0000
  C   C342      1.0  0.07212  0.30883  0.66686  1.0000
  O   O1024     1.0  0.05011  0.31467  0.65705  1.0000
  O   O1025     1.0  0.07444  0.29978  0.69288  1.0000
  O   O1026     1.0  0.09181  0.31204  0.65065  1.0000
  C   C343      1.0  0.40777  0.16468  0.31182  1.0000
  O   O1027     1.0  0.40955  0.14177  0.30633  1.0000
  O   O1028     1.0  0.38669  0.17582  0.30755  1.0000
  O   O1029     1.0  0.42707  0.17644  0.32158  1.0000
  C   C344      1.0  0.95035  0.30417  0.72226  1.0000
  O   O1030     1.0  0.92713  0.30677  0.71440  1.0000
  O   O1031     1.0  0.95932  0.31692  0.74363  1.0000
  O   O1032     1.0  0.96461  0.28882  0.70874  1.0000
  C   C345      1.0  0.60269  0.20863  0.40580  1.0000
  O   O1033     1.0  0.61413  0.18798  0.40684  1.0000
  O   O1034     1.0  0.60579  0.22273  0.38345  1.0000
  O   O1035     1.0  0.58815  0.21518  0.42711  1.0000
  C   C346      1.0  0.59502  0.09679  0.37425  1.0000
  O   O1036     1.0  0.60218  0.07455  0.37123  1.0000
  O   O1037     1.0  0.61055  0.11425  0.36883  1.0000
  O   O1038     1.0  0.57232  0.10157  0.38269  1.0000
  C   C347      1.0  0.56422  0.15522  0.47719  1.0000
  O   O1039     1.0  0.54606  0.16857  0.46746  1.0000
  O   O1040     1.0  0.56513  0.13249  0.47046  1.0000
  O   O1041     1.0  0.58148  0.16460  0.49365  1.0000
  C   C348      1.0  0.00985  0.79484  0.49733  1.0000
  O   O1042     1.0  0.00689  0.77765  0.47839  1.0000
  O   O1043     1.0  0.02988  0.80813  0.49662  1.0000
  O   O1044     1.0  0.99278  0.79875  0.51698  1.0000
  C   C349      1.0  0.87834  0.77674  0.50140  1.0000
  O   O1045     1.0  0.87280  0.76732  0.52655  1.0000
  O   O1046     1.0  0.89601  0.79276  0.49950  1.0000
  O   O1047     1.0  0.86622  0.77013  0.47815  1.0000
  C   C350      1.0  0.78671  0.83676  0.39610  1.0000
  O   O1048     1.0  0.77292  0.82462  0.37793  1.0000
  O   O1049     1.0  0.79518  0.82647  0.41959  1.0000
  O   O1050     1.0  0.79202  0.85918  0.39078  1.0000
  C   C351      1.0  0.79967  0.76462  0.45901  1.0000
  O   O1051     1.0  0.79174  0.78380  0.44562  1.0000
  O   O1052     1.0  0.82219  0.75667  0.45422  1.0000
  O   O1053     1.0  0.78509  0.75339  0.47719  1.0000
  C   C352      1.0  0.87894  0.68946  0.38219  1.0000
  O   O1054     1.0  0.86522  0.67473  0.36702  1.0000
  O   O1055     1.0  0.89841  0.69956  0.37038  1.0000
  O   O1056     1.0  0.87319  0.69410  0.40917  1.0000
  C   C353      1.0  0.04546  0.67585  0.08636  1.0000
  O   O1057     1.0  0.02721  0.68724  0.07364  1.0000
  O   O1058     1.0  0.06387  0.66736  0.07093  1.0000
  O   O1059     1.0  0.04529  0.67295  0.11451  1.0000
  C   C354      1.0  0.16546  0.32467  0.20813  1.0000
  O   O1060     1.0  0.15158  0.32712  0.23124  1.0000
  O   O1061     1.0  0.16205  0.30644  0.19078  1.0000
  O   O1062     1.0  0.18274  0.34045  0.20237  1.0000
  C   C355      1.0  0.20625  0.29595  0.37866  1.0000
  O   O1063     1.0  0.21914  0.31211  0.36467  1.0000
  O   O1064     1.0  0.18243  0.29914  0.38300  1.0000
  O   O1065     1.0  0.21718  0.27660  0.38831  1.0000
  C   C356      1.0  0.21455  0.31621  0.24320  1.0000
  O   O1066     1.0  0.22987  0.32212  0.22236  1.0000
  O   O1067     1.0  0.22167  0.31778  0.27026  1.0000
  O   O1068     1.0  0.19212  0.30873  0.23699  1.0000
  C   C357      1.0  0.23696  0.20384  0.29479  1.0000
  O   O1069     1.0  0.23385  0.20485  0.26668  1.0000
  O   O1070     1.0  0.23984  0.18312  0.30757  1.0000
  O   O1071     1.0  0.23719  0.22354  0.31011  1.0000
  C   C358      1.0  0.71728  0.49162  0.09318  1.0000
  O   O1072     1.0  0.72962  0.51000  0.10328  1.0000
  O   O1073     1.0  0.72904  0.47185  0.08663  1.0000
  O   O1074     1.0  0.69318  0.49302  0.08962  1.0000
  C   C359      1.0  0.72396  0.37378  0.11877  1.0000
  O   O1075     1.0  0.74387  0.36262  0.12790  1.0000
  O   O1076     1.0  0.72511  0.38740  0.09573  1.0000
  O   O1077     1.0  0.70291  0.37132  0.13268  1.0000
  C   C360      1.0  0.60681  0.48143  0.13992  1.0000
  O   O1078     1.0  0.60618  0.46180  0.15537  1.0000
  O   O1079     1.0  0.62788  0.48892  0.12901  1.0000
  O   O1080     1.0  0.58637  0.49357  0.13538  1.0000
  C   C361      1.0  0.64928  0.57247  0.31745  1.0000
  O   O1081     1.0  0.62615  0.57106  0.30880  1.0000
  O   O1082     1.0  0.65492  0.58501  0.34048  1.0000
  O   O1083     1.0  0.66677  0.56134  0.30306  1.0000
  C   C362      1.0  0.65773  0.50057  0.20806  1.0000
  O   O1084     1.0  0.65763  0.49100  0.23395  1.0000
  O   O1085     1.0  0.63675  0.50664  0.19571  1.0000
  O   O1086     1.0  0.67880  0.50407  0.19453  1.0000
  C   C363      1.0  0.57214  0.43478  0.22270  1.0000
  O   O1087     1.0  0.55248  0.44847  0.22069  1.0000
  O   O1088     1.0  0.59380  0.44418  0.22881  1.0000
  O   O1089     1.0  0.57014  0.41169  0.21859  1.0000
  C   C364      1.0  0.59446  0.36139  0.12211  1.0000
  O   O1090     1.0  0.59919  0.33916  0.12913  1.0000
  O   O1091     1.0  0.61179  0.37769  0.12465  1.0000
  O   O1092     1.0  0.57240  0.36732  0.11255  1.0000
  C   C365      1.0  0.69131  0.29445  0.01077  1.0000
  O   O1093     1.0  0.66959  0.28449  0.01501  1.0000
  O   O1094     1.0  0.69293  0.31448  0.99620  1.0000
  O   O1095     1.0  0.71141  0.28438  0.02110  1.0000
  C   C366      1.0  0.70145  0.37058  0.06374  1.0000
  O   O1096     1.0  0.72183  0.36817  0.04852  1.0000
  O   O1097     1.0  0.69300  0.39195  0.06984  1.0000
  O   O1098     1.0  0.68952  0.35161  0.07286  1.0000
  C   C367      1.0  0.46171  0.20091  0.98888  1.0000
  O   O1099     1.0  0.48295  0.19723  0.00198  1.0000
  O   O1100     1.0  0.44244  0.20831  0.00369  1.0000
  O   O1101     1.0  0.45974  0.19719  0.96097  1.0000
  C   C368      1.0  0.62857  0.30532  0.11370  1.0000
  O   O1102     1.0  0.64366  0.29809  0.09325  1.0000
  O   O1103     1.0  0.63729  0.31714  0.13597  1.0000
  O   O1104     1.0  0.60476  0.30073  0.11188  1.0000
  C   C369      1.0  0.51977  0.26204  0.11978  1.0000
  O   O1105     1.0  0.49689  0.25430  0.11747  1.0000
  O   O1106     1.0  0.53183  0.26914  0.09669  1.0000
  O   O1107     1.0  0.53059  0.26268  0.14517  1.0000
  C   C370      1.0  0.56342  0.20384  0.07880  1.0000
  O   O1108     1.0  0.57681  0.18429  0.07928  1.0000
  O   O1109     1.0  0.53917  0.20251  0.08043  1.0000
  O   O1110     1.0  0.57428  0.22472  0.07669  1.0000
  C   C371      1.0  0.71508  0.71057  0.13878  1.0000
  O   O1111     1.0  0.73214  0.69569  0.12961  1.0000
  O   O1112     1.0  0.69276  0.70274  0.14489  1.0000
  O   O1113     1.0  0.72035  0.73329  0.14184  1.0000
  C   C372      1.0  0.32490  0.69896  0.43550  1.0000
  O   O1114     1.0  0.33281  0.68250  0.45344  1.0000
  O   O1115     1.0  0.34044  0.71480  0.42510  1.0000
  O   O1116     1.0  0.30145  0.69958  0.42796  1.0000
  C   C373      1.0  0.70069  0.82579  0.43457  1.0000
  O   O1117     1.0  0.70341  0.84894  0.43169  1.0000
  O   O1118     1.0  0.70075  0.81613  0.46041  1.0000
  O   O1119     1.0  0.69792  0.81230  0.41161  1.0000
  C   C374      1.0  0.67046  0.70101  0.40222  1.0000
  O   O1120     1.0  0.67473  0.67977  0.41308  1.0000
  O   O1121     1.0  0.68677  0.71815  0.40565  1.0000
  O   O1122     1.0  0.64988  0.70510  0.38792  1.0000
  C   C375      1.0  0.53601  0.86004  0.15890  1.0000
  O   O1123     1.0  0.52643  0.84618  0.13895  1.0000
  O   O1124     1.0  0.54099  0.88243  0.15298  1.0000
  O   O1125     1.0  0.54061  0.85151  0.18477  1.0000
  C   C376      1.0  0.70781  0.63038  0.66203  1.0000
  O   O1126     1.0  0.70043  0.61121  0.64821  1.0000
  O   O1127     1.0  0.69944  0.63484  0.68811  1.0000
  O   O1128     1.0  0.72356  0.64509  0.64978  1.0000
  C   C377      1.0  0.76954  0.45616  0.91567  1.0000
  O   O1129     1.0  0.77381  0.47883  0.92071  1.0000
  O   O1130     1.0  0.76957  0.44082  0.93710  1.0000
  O   O1131     1.0  0.76524  0.44883  0.88920  1.0000
  C   C378      1.0  0.73175  0.48038  0.94044  1.0000
  O   O1132     1.0  0.71690  0.49814  0.93394  1.0000
  O   O1133     1.0  0.74705  0.48226  0.96237  1.0000
  O   O1134     1.0  0.73129  0.46074  0.92501  1.0000
  C   C379      1.0  0.68498  0.10602  0.51562  1.0000
  O   O1135     1.0  0.69036  0.12699  0.52658  1.0000
  O   O1136     1.0  0.66190  0.09863  0.51507  1.0000
  O   O1137     1.0  0.70268  0.09244  0.50522  1.0000
  C   C380      1.0  0.63179  0.72715  0.42737  1.0000
  O   O1138     1.0  0.62582  0.74696  0.41394  1.0000
  O   O1139     1.0  0.65170  0.72639  0.44366  1.0000
  O   O1140     1.0  0.61785  0.70810  0.42452  1.0000
  C   C381      1.0  0.77417  0.74015  0.58636  1.0000
  O   O1141     1.0  0.75519  0.75470  0.58844  1.0000
  O   O1142     1.0  0.79160  0.74043  0.60615  1.0000
  O   O1143     1.0  0.77572  0.72532  0.56449  1.0000
  C   C382      1.0  0.73339  0.70204  0.44928  1.0000
  O   O1144     1.0  0.71307  0.69132  0.44063  1.0000
  O   O1145     1.0  0.74708  0.69240  0.46962  1.0000
  O   O1146     1.0  0.74002  0.72240  0.43759  1.0000
  C   C383      1.0  0.92570  0.82629  0.44708  1.0000
  O   O1147     1.0  0.90411  0.83607  0.44152  1.0000
  O   O1148     1.0  0.92677  0.80505  0.45896  1.0000
  O   O1149     1.0  0.94622  0.83775  0.44076  1.0000
  C   C384      1.0  0.88212  0.81365  0.39680  1.0000
  O   O1150     1.0  0.86680  0.79672  0.38874  1.0000
  O   O1151     1.0  0.87415  0.83567  0.39941  1.0000
  O   O1152     1.0  0.90541  0.80856  0.40224  1.0000
  C   C385      1.0  0.70152  0.26091  0.75939  1.0000
  O   O1153     1.0  0.71570  0.25483  0.73755  1.0000
  O   O1154     1.0  0.70548  0.28106  0.77307  1.0000
  O   O1155     1.0  0.68338  0.24684  0.76755  1.0000
  C   C386      1.0  0.17188  0.32052  0.72320  1.0000
  O   O1156     1.0  0.18854  0.30858  0.73796  1.0000
  O   O1157     1.0  0.16276  0.31153  0.69926  1.0000
  O   O1158     1.0  0.16434  0.34145  0.73237  1.0000
  C   C387      1.0  0.71782  0.17784  0.99619  1.0000
  O   O1159     1.0  0.71770  0.18679  0.02240  1.0000
  O   O1160     1.0  0.73740  0.18046  0.97965  1.0000
  O   O1161     1.0  0.69836  0.16627  0.98652  1.0000
  C   C388      1.0  0.19538  0.48119  0.82501  1.0000
  O   O1162     1.0  0.18572  0.47224  0.84868  1.0000
  O   O1163     1.0  0.21927  0.48549  0.82364  1.0000
  O   O1164     1.0  0.18114  0.48585  0.80271  1.0000
  C   C389      1.0  0.04334  0.19533  0.59381  1.0000
  O   O1165     1.0  0.03336  0.20932  0.61335  1.0000
  O   O1166     1.0  0.03876  0.19891  0.56629  1.0000
  O   O1167     1.0  0.05791  0.17777  0.60178  1.0000
  C   C390      1.0  0.32693  0.48317  0.73275  1.0000
  O   O1168     1.0  0.31292  0.46771  0.71908  1.0000
  O   O1169     1.0  0.32734  0.50556  0.72445  1.0000
  O   O1170     1.0  0.34054  0.47625  0.75472  1.0000
  C   C391      1.0  0.37510  0.45076  0.72499  1.0000
  O   O1171     1.0  0.36976  0.43109  0.73905  1.0000
  O   O1172     1.0  0.39773  0.45934  0.72569  1.0000
  O   O1173     1.0  0.35781  0.46185  0.71023  1.0000
  C   C392      1.0  0.76352  0.07317  0.74174  1.0000
  O   O1174     1.0  0.76577  0.09630  0.73824  1.0000
  O   O1175     1.0  0.77028  0.05858  0.72101  1.0000
  O   O1176     1.0  0.75450  0.06463  0.76597  1.0000
  C   C393      1.0  0.31725  0.96601  0.99563  1.0000
  O   O1177     1.0  0.30155  0.94856  0.99087  1.0000
  O   O1178     1.0  0.31043  0.98820  0.99133  1.0000
  O   O1179     1.0  0.33978  0.96127  0.00469  1.0000
  C   C394      1.0  0.34526  0.57548  0.42348  1.0000
  O   O1180     1.0  0.36158  0.59246  0.41906  1.0000
  O   O1181     1.0  0.34819  0.56056  0.44507  1.0000
  O   O1182     1.0  0.32601  0.57342  0.40631  1.0000
  C   C395      1.0  0.39101  0.65088  0.39626  1.0000
  O   O1183     1.0  0.41278  0.65729  0.38624  1.0000
  O   O1184     1.0  0.38692  0.62856  0.40340  1.0000
  O   O1185     1.0  0.37333  0.66679  0.39914  1.0000
  C   C396      1.0  0.38520  0.64843  0.53384  1.0000
  O   O1186     1.0  0.40852  0.64300  0.53857  1.0000
  O   O1187     1.0  0.37343  0.66269  0.55167  1.0000
  O   O1188     1.0  0.37365  0.63960  0.51128  1.0000
  C   C397      1.0  0.51926  0.25426  0.63684  1.0000
  O   O1189     1.0  0.51337  0.24662  0.66276  1.0000
  O   O1190     1.0  0.54265  0.25635  0.62945  1.0000
  O   O1191     1.0  0.50176  0.25982  0.61832  1.0000
  C   C398      1.0  0.56414  0.24305  0.51664  1.0000
  O   O1192     1.0  0.58760  0.23797  0.51234  1.0000
  O   O1193     1.0  0.54722  0.23496  0.49877  1.0000
  O   O1194     1.0  0.55760  0.25622  0.53882  1.0000
  C   C399      1.0  0.08129  0.35056  0.36638  1.0000
  O   O1195     1.0  0.07668  0.35989  0.39183  1.0000
  O   O1196     1.0  0.09979  0.33558  0.36319  1.0000
  O   O1197     1.0  0.06741  0.35621  0.34412  1.0000
  C   C400      1.0  0.99843  0.33143  0.43863  1.0000
  O   O1198     1.0  0.97677  0.33665  0.44990  1.0000
  O   O1199     1.0  0.00587  0.30916  0.43750  1.0000
  O   O1200     1.0  0.01265  0.34849  0.42849  1.0000
  C   C401      1.0  0.14421  0.32793  0.37050  1.0000
  O   O1201     1.0  0.14658  0.30645  0.35954  1.0000
  O   O1202     1.0  0.15520  0.34613  0.35809  1.0000
  O   O1203     1.0  0.13085  0.33120  0.39387  1.0000
  C   C402      1.0  0.10555  0.30545  0.50078  1.0000
  O   O1204     1.0  0.08435  0.29622  0.50907  1.0000
  O   O1205     1.0  0.10679  0.32804  0.49345  1.0000
  O   O1206     1.0  0.12552  0.29209  0.49982  1.0000
  C   C403      1.0  0.10905  0.27075  0.38800  1.0000
  O   O1207     1.0  0.08796  0.26141  0.39650  1.0000
  O   O1208     1.0  0.12110  0.26135  0.36615  1.0000
  O   O1209     1.0  0.11809  0.28949  0.40136  1.0000
  C   C404      1.0  0.21978  0.25097  0.51370  1.0000
  O   O1210     1.0  0.23638  0.23423  0.51804  1.0000
  O   O1211     1.0  0.22560  0.27344  0.51790  1.0000
  O   O1212     1.0  0.19735  0.24524  0.50516  1.0000
  C   C405      1.0  0.80979  0.66250  0.77654  1.0000
  O   O1213     1.0  0.82994  0.66630  0.79176  1.0000
  O   O1214     1.0  0.80639  0.67386  0.75206  1.0000
  O   O1215     1.0  0.79304  0.64734  0.78581  1.0000
  C   C406      1.0  0.26607  0.06552  0.20045  1.0000
  O   O1216     1.0  0.24915  0.06148  0.18066  1.0000
  O   O1217     1.0  0.26009  0.06479  0.22793  1.0000
  O   O1218     1.0  0.28896  0.07028  0.19276  1.0000
  C   C407      1.0  0.89991  0.96005  0.66593  1.0000
  O   O1219     1.0  0.88095  0.97055  0.67834  1.0000
  O   O1220     1.0  0.91930  0.97265  0.65813  1.0000
  O   O1221     1.0  0.89948  0.93695  0.66132  1.0000
  C   C408      1.0  0.82645  0.88010  0.13423  1.0000
  O   O1222     1.0  0.84998  0.87811  0.14102  1.0000
  O   O1223     1.0  0.81473  0.86205  0.12241  1.0000
  O   O1224     1.0  0.81464  0.90015  0.13925  1.0000
  C   C409      1.0  0.78890  0.75245  0.89799  1.0000
  O   O1225     1.0  0.79982  0.74542  0.92186  1.0000
  O   O1226     1.0  0.77824  0.73677  0.88098  1.0000
  O   O1227     1.0  0.78864  0.77517  0.89112  1.0000
  C   C410      1.0  0.11291  0.47541  0.27852  1.0000
  O   O1228     1.0  0.11535  0.45990  0.25746  1.0000
  O   O1229     1.0  0.09511  0.49136  0.27759  1.0000
  O   O1230     1.0  0.12827  0.47497  0.30051  1.0000
  C   C411      1.0  0.10773  0.10148  0.83374  1.0000
  O   O1231     1.0  0.12186  0.08406  0.82438  1.0000
  O   O1232     1.0  0.11221  0.11136  0.85892  1.0000
  O   O1233     1.0  0.08911  0.10902  0.81792  1.0000
  C   C412      1.0  0.13390  0.98094  0.82283  1.0000
  O   O1234     1.0  0.15175  0.96846  0.81088  1.0000
  O   O1235     1.0  0.13248  0.98260  0.85108  1.0000
  O   O1236     1.0  0.11746  0.99176  0.80653  1.0000
  C   C413      1.0  0.17000  0.97970  0.87451  1.0000
  O   O1237     1.0  0.16597  0.97286  0.90123  1.0000
  O   O1238     1.0  0.16735  0.00222  0.86737  1.0000
  O   O1239     1.0  0.17668  0.96402  0.85493  1.0000
  C   C414      1.0  0.18091  0.94124  0.81432  1.0000
  O   O1240     1.0  0.20023  0.95439  0.82094  1.0000
  O   O1241     1.0  0.16252  0.93910  0.83272  1.0000
  O   O1242     1.0  0.17998  0.93023  0.78931  1.0000
  C   C415      1.0  0.83637  0.47442  0.33154  1.0000
  O   O1243     1.0  0.85582  0.48835  0.32915  1.0000
  O   O1244     1.0  0.83034  0.46006  0.31027  1.0000
  O   O1245     1.0  0.82295  0.47485  0.35520  1.0000
  C   C416      1.0  0.86636  0.82201  0.70902  1.0000
  O   O1246     1.0  0.84619  0.80898  0.71063  1.0000
  O   O1247     1.0  0.86466  0.84520  0.70562  1.0000
  O   O1248     1.0  0.88823  0.81185  0.71081  1.0000
  C   C417      1.0  0.98936  0.68372  0.16564  1.0000
  O   O1249     1.0  0.99101  0.66461  0.18192  1.0000
  O   O1250     1.0  0.97328  0.68443  0.14436  1.0000
  O   O1251     1.0  0.00378  0.70212  0.17064  1.0000
  C   C418      1.0  0.15306  0.05970  0.28658  1.0000
  O   O1252     1.0  0.13625  0.05549  0.26672  1.0000
  O   O1253     1.0  0.16462  0.08030  0.28713  1.0000
  O   O1254     1.0  0.15831  0.04332  0.30590  1.0000
  C   C419      1.0  0.32606  0.28186  0.19722  1.0000
  O   O1255     1.0  0.34325  0.29388  0.18339  1.0000
  O   O1256     1.0  0.31810  0.26146  0.18685  1.0000
  O   O1257     1.0  0.31684  0.29025  0.22142  1.0000
  C   C420      1.0  0.21229  0.26960  0.70429  1.0000
  O   O1258     1.0  0.22317  0.25287  0.71955  1.0000
  O   O1259     1.0  0.18913  0.27531  0.70956  1.0000
  O   O1260     1.0  0.22457  0.28062  0.68376  1.0000
  C   C421      1.0  0.05137  0.04574  0.72364  1.0000
  O   O1261     1.0  0.06947  0.05867  0.71298  1.0000
  O   O1262     1.0  0.03220  0.05617  0.73570  1.0000
  O   O1263     1.0  0.05244  0.02238  0.72224  1.0000
  C   C422      1.0  0.49427  0.14996  0.06660  1.0000
  O   O1264     1.0  0.49831  0.16932  0.05135  1.0000
  O   O1265     1.0  0.49138  0.12935  0.05356  1.0000
  O   O1266     1.0  0.49312  0.15121  0.09489  1.0000
  C   C423      1.0  0.42603  0.10270  0.09408  1.0000
  O   O1267     1.0  0.41031  0.11658  0.08043  1.0000
  O   O1268     1.0  0.44914  0.10947  0.09750  1.0000
  O   O1269     1.0  0.41864  0.08206  0.10432  1.0000
  C   C424      1.0  0.17411  0.05540  0.34458  1.0000
  O   O1270     1.0  0.19162  0.06645  0.33013  1.0000
  O   O1271     1.0  0.17749  0.03334  0.35323  1.0000
  O   O1272     1.0  0.15322  0.06641  0.35038  1.0000
  C   C425      1.0  0.21834  0.10308  0.43335  1.0000
  O   O1273     1.0  0.21927  0.12428  0.44534  1.0000
  O   O1274     1.0  0.23840  0.09372  0.42197  1.0000
  O   O1275     1.0  0.19735  0.09124  0.43274  1.0000
  C   C426      1.0  0.99997  0.60354  0.01987  1.0000
  O   O1276     1.0  0.00773  0.62547  0.01576  1.0000
  O   O1277     1.0  0.98643  0.59838  0.04259  1.0000
  O   O1278     1.0  0.00575  0.58677  0.00126  1.0000
  C   C427      1.0  0.01361  0.65414  0.96046  1.0000
  O   O1279     1.0  0.02630  0.64609  0.98261  1.0000
  O   O1280     1.0  0.00642  0.63942  0.94005  1.0000
  O   O1281     1.0  0.00812  0.67690  0.95871  1.0000
  C   C428      1.0  0.50420  0.42019  0.01699  1.0000
  O   O1282     1.0  0.51212  0.39817  0.01418  1.0000
  O   O1283     1.0  0.50141  0.42946  0.04283  1.0000
  O   O1284     1.0  0.49907  0.43293  0.99396  1.0000
  C   C429      1.0  0.55917  0.41583  0.06463  1.0000
  O   O1285     1.0  0.56636  0.39435  0.07220  1.0000
  O   O1286     1.0  0.55817  0.43293  0.08397  1.0000
  O   O1287     1.0  0.55297  0.42021  0.03772  1.0000
  C   C430      1.0  0.58752  0.47216  0.98637  1.0000
  O   O1288     1.0  0.60020  0.45808  0.96920  1.0000
  O   O1289     1.0  0.56511  0.46609  0.99460  1.0000
  O   O1290     1.0  0.59725  0.49231  0.99531  1.0000
  C   C431      1.0  0.45333  0.38303  0.07234  1.0000
  O   O1291     1.0  0.44964  0.37115  0.09640  1.0000
  O   O1292     1.0  0.43453  0.39282  0.05880  1.0000
  O   O1293     1.0  0.47582  0.38511  0.06182  1.0000
  C   C432      1.0  0.47029  0.46968  0.16861  1.0000
  O   O1294     1.0  0.47476  0.46121  0.19453  1.0000
  O   O1295     1.0  0.45734  0.48934  0.16556  1.0000
  O   O1296     1.0  0.47877  0.45849  0.14574  1.0000
  C   C433      1.0  0.41330  0.41781  0.08269  1.0000
  O   O1297     1.0  0.38923  0.41628  0.08645  1.0000
  O   O1298     1.0  0.42844  0.41116  0.10339  1.0000
  O   O1299     1.0  0.42223  0.42599  0.05824  1.0000
  C   C434      1.0  0.30047  0.40851  0.01255  1.0000
  O   O1300     1.0  0.28483  0.40211  0.99225  1.0000
  O   O1301     1.0  0.30984  0.43012  0.01256  1.0000
  O   O1302     1.0  0.30674  0.39330  0.03284  1.0000
  C   C435      1.0  0.31776  0.38702  0.08193  1.0000
  O   O1303     1.0  0.33656  0.39260  0.06524  1.0000
  O   O1304     1.0  0.31684  0.36597  0.09430  1.0000
  O   O1305     1.0  0.29988  0.40250  0.08625  1.0000
  C   C436      1.0  0.16358  0.38310  0.78806  1.0000
  O   O1306     1.0  0.14932  0.36621  0.79852  1.0000
  O   O1307     1.0  0.17066  0.40080  0.80469  1.0000
  O   O1308     1.0  0.17076  0.38229  0.76097  1.0000
  C   C437      1.0  0.97067  0.88492  0.54707  1.0000
  O   O1309     1.0  0.98086  0.90419  0.53618  1.0000
  O   O1310     1.0  0.94645  0.88322  0.54879  1.0000
  O   O1311     1.0  0.98470  0.86735  0.55624  1.0000
  C   C438      1.0  0.81289  0.83305  0.34308  1.0000
  O   O1312     1.0  0.80236  0.85287  0.35189  1.0000
  O   O1313     1.0  0.81849  0.83027  0.31568  1.0000
  O   O1314     1.0  0.81782  0.81601  0.36167  1.0000
  C   C439      1.0  0.50367  0.25899  0.26700  1.0000
  O   O1315     1.0  0.48198  0.24957  0.27292  1.0000
  O   O1316     1.0  0.50599  0.27380  0.24520  1.0000
  O   O1317     1.0  0.52304  0.25361  0.28289  1.0000
  C   C440      1.0  0.10537  0.64588  0.31655  1.0000
  O   O1318     1.0  0.09225  0.63136  0.33272  1.0000
  O   O1319     1.0  0.09972  0.66864  0.31543  1.0000
  O   O1320     1.0  0.12414  0.63764  0.30150  1.0000
  C   C441      1.0  0.17512  0.55875  0.34668  1.0000
  O   O1321     1.0  0.15810  0.54392  0.33729  1.0000
  O   O1322     1.0  0.17085  0.58180  0.34659  1.0000
  O   O1323     1.0  0.19640  0.55053  0.35616  1.0000
  C   C442      1.0  0.83814  0.66220  0.93192  1.0000
  O   O1324     1.0  0.86186  0.65774  0.93525  1.0000
  O   O1325     1.0  0.82926  0.66680  0.90611  1.0000
  O   O1326     1.0  0.82331  0.66206  0.95440  1.0000
  C   C443      1.0  0.88127  0.72551  0.91117  1.0000
  O   O1327     1.0  0.89100  0.70656  0.89897  1.0000
  O   O1328     1.0  0.87883  0.72645  0.93937  1.0000
  O   O1329     1.0  0.87398  0.74353  0.89517  1.0000
  C   C444      1.0  0.40944  0.87896  0.61509  1.0000
  O   O1330     1.0  0.42917  0.88534  0.60040  1.0000
  O   O1331     1.0  0.38770  0.88798  0.60854  1.0000
  O   O1332     1.0  0.41145  0.86356  0.63633  1.0000
  C   C445      1.0  0.94264  0.04003  0.46527  1.0000
  O   O1333     1.0  0.96459  0.04220  0.45330  1.0000
  O   O1334     1.0  0.93545  0.05533  0.48504  1.0000
  O   O1335     1.0  0.92788  0.02256  0.45747  1.0000
  C   C446      1.0  0.85456  0.99883  0.40606  1.0000
  O   O1336     1.0  0.84300  0.01871  0.41260  1.0000
  O   O1337     1.0  0.86436  0.99609  0.38031  1.0000
  O   O1338     1.0  0.85631  0.98168  0.42527  1.0000
  C   C447      1.0  0.00342  0.02385  0.50325  1.0000
  O   O1339     1.0  0.99948  0.02990  0.53026  1.0000
  O   O1340     1.0  0.00246  0.04008  0.48283  1.0000
  O   O1341     1.0  0.00832  0.00157  0.49665  1.0000
  C   C448      1.0  0.72044  0.05829  0.92226  1.0000
  O   O1342     1.0  0.70853  0.06193  0.94660  1.0000
  O   O1343     1.0  0.71985  0.03720  0.90996  1.0000
  O   O1344     1.0  0.73294  0.07575  0.91022  1.0000
  C   C449      1.0  0.15871  0.66275  0.06373  1.0000
  O   O1345     1.0  0.16997  0.67102  0.04067  1.0000
  O   O1346     1.0  0.13794  0.67253  0.07254  1.0000
  O   O1347     1.0  0.16823  0.64469  0.07798  1.0000
  C   C450      1.0  0.29445  0.87599  0.99981  1.0000
  O   O1348     1.0  0.31105  0.87864  0.97932  1.0000
  O   O1349     1.0  0.30003  0.86405  0.02333  1.0000
  O   O1350     1.0  0.27226  0.88527  0.99678  1.0000
  C   C451      1.0  0.46348  0.20115  0.64780  1.0000
  O   O1351     1.0  0.48178  0.21485  0.63920  1.0000
  O   O1352     1.0  0.45794  0.18177  0.63325  1.0000
  O   O1353     1.0  0.45072  0.20683  0.67095  1.0000
  C   C452      1.0  0.45266  0.20632  0.43552  1.0000
  O   O1354     1.0  0.43503  0.20511  0.41602  1.0000
  O   O1355     1.0  0.44809  0.21580  0.46090  1.0000
  O   O1356     1.0  0.47486  0.19806  0.42964  1.0000
  C   C453      1.0  0.45398  0.27111  0.53181  1.0000
  O   O1357     1.0  0.47649  0.26685  0.54128  1.0000
  O   O1358     1.0  0.45032  0.27604  0.50441  1.0000
  O   O1359     1.0  0.43514  0.27045  0.54974  1.0000
  C   C454      1.0  0.41956  0.26062  0.67000  1.0000
  O   O1360     1.0  0.43497  0.24425  0.67943  1.0000
  O   O1361     1.0  0.39586  0.25574  0.66754  1.0000
  O   O1362     1.0  0.42786  0.28187  0.66303  1.0000
  C   C455      1.0  0.49077  0.28163  0.40831  1.0000
  O   O1363     1.0  0.48843  0.28939  0.43493  1.0000
  O   O1364     1.0  0.51268  0.27554  0.39842  1.0000
  O   O1365     1.0  0.47120  0.27996  0.39158  1.0000
  C   C456      1.0  0.55318  0.26807  0.45763  1.0000
  O   O1366     1.0  0.56213  0.27474  0.48274  1.0000
  O   O1367     1.0  0.55752  0.24647  0.44793  1.0000
  O   O1368     1.0  0.53989  0.28300  0.44222  1.0000
  C   C457      1.0  0.14512  0.62539  0.74875  1.0000
  O   O1369     1.0  0.13804  0.61327  0.72593  1.0000
  O   O1370     1.0  0.16881  0.62759  0.75467  1.0000
  O   O1371     1.0  0.12852  0.63531  0.76565  1.0000
  C   C458      1.0  0.23277  0.07124  0.61960  1.0000
  O   O1372     1.0  0.21626  0.08844  0.61995  1.0000
  O   O1373     1.0  0.24194  0.06379  0.59492  1.0000
  O   O1374     1.0  0.24011  0.06149  0.64393  1.0000
  C   C459      1.0  0.12896  0.03801  0.61288  1.0000
  O   O1375     1.0  0.13008  0.03173  0.64017  1.0000
  O   O1376     1.0  0.12216  0.05973  0.60586  1.0000
  O   O1377     1.0  0.13464  0.02257  0.59261  1.0000
  C   C460      1.0  0.02749  0.03774  0.86335  1.0000
  O   O1378     1.0  0.00792  0.03253  0.84772  1.0000
  O   O1379     1.0  0.04698  0.04750  0.85115  1.0000
  O   O1380     1.0  0.02758  0.03319  0.89117  1.0000
  C   C461      1.0  0.93599  0.97127  0.85566  1.0000
  O   O1381     1.0  0.93955  0.98248  0.83111  1.0000
  O   O1382     1.0  0.91708  0.97695  0.87212  1.0000
  O   O1383     1.0  0.95135  0.95438  0.86375  1.0000
  C   C462      1.0  0.01480  0.97610  0.75950  1.0000
  O   O1384     1.0  0.00343  0.97072  0.78372  1.0000
  O   O1385     1.0  0.02187  0.95908  0.74186  1.0000
  O   O1386     1.0  0.01910  0.99850  0.75293  1.0000
  C   C463      1.0  0.24669  0.88466  0.44561  1.0000
  O   O1387     1.0  0.25367  0.88165  0.41868  1.0000
  O   O1388     1.0  0.22408  0.87898  0.45352  1.0000
  O   O1389     1.0  0.26232  0.89335  0.46463  1.0000
  C   C464      1.0  0.15498  0.87276  0.39195  1.0000
  O   O1390     1.0  0.15594  0.89064  0.37368  1.0000
  O   O1391     1.0  0.15935  0.87640  0.41950  1.0000
  O   O1392     1.0  0.14965  0.85124  0.38267  1.0000
  C   C465      1.0  0.20007  0.92003  0.35617  1.0000
  O   O1393     1.0  0.21933  0.93294  0.34870  1.0000
  O   O1394     1.0  0.18730  0.92559  0.37936  1.0000
  O   O1395     1.0  0.19358  0.90157  0.34046  1.0000
  C   C466      1.0  0.98202  0.81180  0.31280  1.0000
  O   O1396     1.0  0.97957  0.83279  0.32504  1.0000
  O   O1397     1.0  0.99770  0.80894  0.29139  1.0000
  O   O1398     1.0  0.96879  0.79367  0.32197  1.0000
  C   C467      1.0  0.07231  0.81177  0.39680  1.0000
  O   O1399     1.0  0.07245  0.81784  0.36941  1.0000
  O   O1400     1.0  0.09105  0.79987  0.40774  1.0000
  O   O1401     1.0  0.05343  0.81760  0.41325  1.0000
  C   C468      1.0  0.11794  0.79941  0.26622  1.0000
  O   O1402     1.0  0.13526  0.78552  0.27689  1.0000
  O   O1403     1.0  0.12347  0.82113  0.25781  1.0000
  O   O1404     1.0  0.09509  0.79158  0.26396  1.0000
  C   C469      1.0  0.51495  0.96399  0.16658  1.0000
  O   O1405     1.0  0.50782  0.95157  0.18914  1.0000
  O   O1406     1.0  0.53866  0.96692  0.16130  1.0000
  O   O1407     1.0  0.49837  0.97348  0.14930  1.0000
  C   C470      1.0  0.56771  0.99470  0.20434  1.0000
  O   O1408     1.0  0.55176  0.00281  0.18530  1.0000
  O   O1409     1.0  0.56176  0.97659  0.22092  1.0000
  O   O1410     1.0  0.58961  0.00470  0.20679  1.0000
  C   C471      1.0  0.77466  0.66487  0.04025  1.0000
  O   O1411     1.0  0.75936  0.65976  0.06142  1.0000
  O   O1412     1.0  0.79773  0.65746  0.04127  1.0000
  O   O1413     1.0  0.76689  0.67739  0.01806  1.0000
  C   C472      1.0  0.73855  0.69037  0.95049  1.0000
  O   O1414     1.0  0.73979  0.68209  0.97698  1.0000
  O   O1415     1.0  0.73332  0.71293  0.94598  1.0000
  O   O1416     1.0  0.74254  0.67608  0.92850  1.0000
  C   C473      1.0  0.79390  0.69846  0.95919  1.0000
  O   O1417     1.0  0.79809  0.70062  0.98701  1.0000
  O   O1418     1.0  0.80828  0.70940  0.94054  1.0000
  O   O1419     1.0  0.77532  0.68536  0.95003  1.0000
  C   C474      1.0  0.69688  0.77798  0.02149  1.0000
  O   O1420     1.0  0.71590  0.79214  0.02580  1.0000
  O   O1421     1.0  0.69697  0.75629  0.03218  1.0000
  O   O1422     1.0  0.67776  0.78551  0.00649  1.0000
  C   C475      1.0  0.67317  0.72018  0.06945  1.0000
  O   O1423     1.0  0.66317  0.71965  0.09530  1.0000
  O   O1424     1.0  0.69022  0.70453  0.06238  1.0000
  O   O1425     1.0  0.66612  0.73636  0.05067  1.0000
  C   C476      1.0  0.36015  0.59258  0.11018  1.0000
  O   O1426     1.0  0.37949  0.58075  0.10063  1.0000
  O   O1427     1.0  0.34171  0.58112  0.12242  1.0000
  O   O1428     1.0  0.35925  0.61587  0.10748  1.0000
  C   C477      1.0  0.31465  0.63340  0.99519  1.0000
  O   O1429     1.0  0.30241  0.62173  0.01522  1.0000
  O   O1430     1.0  0.33775  0.62776  0.98946  1.0000
  O   O1431     1.0  0.30379  0.65071  0.98089  1.0000
  C   C478      1.0  0.29424  0.72406  0.09299  1.0000
  O   O1432     1.0  0.30374  0.71205  0.11468  1.0000
  O   O1433     1.0  0.29852  0.71721  0.06633  1.0000
  O   O1434     1.0  0.28046  0.74292  0.09796  1.0000
  C   C479      1.0  0.35853  0.68113  0.06149  1.0000
  O   O1435     1.0  0.35764  0.67039  0.03631  1.0000
  O   O1436     1.0  0.35846  0.66850  0.08537  1.0000
  O   O1437     1.0  0.35949  0.70450  0.06279  1.0000
  C   C480      1.0  0.34532  0.69821  0.11535  1.0000
  O   O1438     1.0  0.36548  0.68742  0.12436  1.0000
  O   O1439     1.0  0.32882  0.68643  0.10016  1.0000
  O   O1440     1.0  0.34166  0.72079  0.12153  1.0000
  C   C481      1.0  0.04150  0.88333  0.94491  1.0000
  O   O1441     1.0  0.02174  0.88901  0.95996  1.0000
  O   O1442     1.0  0.04973  0.86130  0.94509  1.0000
  O   O1443     1.0  0.05303  0.89968  0.92969  1.0000
  C   C482      1.0  0.01377  0.78635  0.01023  1.0000
  O   O1444     1.0  0.03136  0.77291  0.02113  1.0000
  O   O1445     1.0  0.01268  0.80909  0.01688  1.0000
  O   O1446     1.0  0.99727  0.77706  0.99268  1.0000
  C   C483      1.0  0.57229  0.26542  0.96620  1.0000
  O   O1447     1.0  0.56926  0.24311  0.95837  1.0000
  O   O1448     1.0  0.59278  0.27675  0.95942  1.0000
  O   O1449     1.0  0.55484  0.27641  0.98081  1.0000
  C   C484      1.0  0.53273  0.48759  0.90023  1.0000
  O   O1450     1.0  0.53953  0.50756  0.91274  1.0000
  O   O1451     1.0  0.54666  0.46849  0.90253  1.0000
  O   O1452     1.0  0.51200  0.48673  0.88541  1.0000
  C   C485      1.0  0.57432  0.45701  0.92628  1.0000
  O   O1453     1.0  0.56465  0.44232  0.94528  1.0000
  O   O1454     1.0  0.58783  0.44865  0.90497  1.0000
  O   O1455     1.0  0.57048  0.48005  0.92859  1.0000
  C   C486      1.0  0.58662  0.43927  0.86902  1.0000
  O   O1456     1.0  0.57074  0.42219  0.87483  1.0000
  O   O1457     1.0  0.57862  0.46079  0.86289  1.0000
  O   O1458     1.0  0.61051  0.43482  0.86934  1.0000
  C   C487      1.0  0.17053  0.87154  0.58109  1.0000
  O   O1459     1.0  0.15043  0.87511  0.59647  1.0000
  O   O1460     1.0  0.17045  0.85571  0.56019  1.0000
  O   O1461     1.0  0.19071  0.88380  0.58660  1.0000
  C   C488      1.0  0.01042  0.55018  0.64231  1.0000
  O   O1462     1.0  0.00258  0.53000  0.63119  1.0000
  O   O1463     1.0  0.01300  0.56904  0.62578  1.0000
  O   O1464     1.0  0.01568  0.55150  0.66996  1.0000
  C   C489      1.0  0.06987  0.61382  0.70001  1.0000
  O   O1465     1.0  0.05888  0.60877  0.72456  1.0000
  O   O1466     1.0  0.05674  0.62119  0.67786  1.0000
  O   O1467     1.0  0.09399  0.61150  0.69760  1.0000
  C   C490      1.0  0.18206  0.57764  0.62699  1.0000
  O   O1468     1.0  0.18289  0.59613  0.60961  1.0000
  O   O1469     1.0  0.16752  0.57798  0.64973  1.0000
  O   O1470     1.0  0.19577  0.55881  0.62163  1.0000
  C   C491      1.0  0.31160  0.86700  0.32478  1.0000
  O   O1471     1.0  0.28732  0.86766  0.32301  1.0000
  O   O1472     1.0  0.32261  0.84859  0.33672  1.0000
  O   O1473     1.0  0.32486  0.88475  0.31462  1.0000
  C   C492      1.0  0.38689  0.94497  0.37573  1.0000
  O   O1474     1.0  0.40954  0.95347  0.37696  1.0000
  O   O1475     1.0  0.37201  0.95150  0.35473  1.0000
  O   O1476     1.0  0.37913  0.92993  0.39550  1.0000
  C   C493      1.0  0.21841  0.98523  0.45693  1.0000
  O   O1477     1.0  0.22283  0.96297  0.44981  1.0000
  O   O1478     1.0  0.19838  0.99066  0.47163  1.0000
  O   O1479     1.0  0.23402  0.00206  0.44935  1.0000
  C   C494      1.0  0.37567  0.86837  0.39146  1.0000
  O   O1480     1.0  0.36614  0.86520  0.36564  1.0000
  O   O1481     1.0  0.38985  0.88692  0.39659  1.0000
  O   O1482     1.0  0.37101  0.85299  0.41215  1.0000
  C   C495      1.0  0.25756  0.92594  0.38052  1.0000
  O   O1483     1.0  0.27474  0.92844  0.40038  1.0000
  O   O1484     1.0  0.23555  0.91785  0.38762  1.0000
  O   O1485     1.0  0.26239  0.93153  0.35356  1.0000
  C   C496      1.0  0.17402  0.43297  0.72139  1.0000
  O   O1486     1.0  0.17655  0.45358  0.70825  1.0000
  O   O1487     1.0  0.17010  0.43227  0.74937  1.0000
  O   O1488     1.0  0.17541  0.41306  0.70654  1.0000
  C   C497      1.0  0.71013  0.63143  0.85357  1.0000
  O   O1489     1.0  0.70612  0.65257  0.84230  1.0000
  O   O1490     1.0  0.71734  0.62953  0.88056  1.0000
  O   O1491     1.0  0.70692  0.61219  0.83785  1.0000
  C   C498      1.0  0.64792  0.65907  0.92081  1.0000
  O   O1492     1.0  0.64296  0.65433  0.89364  1.0000
  O   O1493     1.0  0.66300  0.64521  0.93542  1.0000
  O   O1494     1.0  0.63779  0.67767  0.93337  1.0000
  C   C499      1.0  0.72185  0.58259  0.77043  1.0000
  O   O1495     1.0  0.73191  0.57157  0.79254  1.0000
  O   O1496     1.0  0.72770  0.57626  0.74399  1.0000
  O   O1497     1.0  0.70594  0.59994  0.77476  1.0000
  C   C500      1.0  0.86929  0.15187  0.85238  1.0000
  O   O1498     1.0  0.89163  0.16057  0.84850  1.0000
  O   O1499     1.0  0.86613  0.12879  0.85543  1.0000
  O   O1500     1.0  0.85010  0.16625  0.85321  1.0000
  C   C501      1.0  0.85756  0.18875  0.05917  1.0000
  O   O1501     1.0  0.84511  0.17431  0.04220  1.0000
  O   O1502     1.0  0.87456  0.18019  0.07661  1.0000
  O   O1503     1.0  0.85301  0.21175  0.05870  1.0000
  C   C502      1.0  0.81987  0.18406  0.10776  1.0000
  O   O1504     1.0  0.83044  0.19189  0.08404  1.0000
  O   O1505     1.0  0.79606  0.17922  0.10796  1.0000
  O   O1506     1.0  0.83310  0.18108  0.13129  1.0000
  C   C503      1.0  0.80629  0.25389  0.17318  1.0000
  O   O1507     1.0  0.82789  0.25449  0.16015  1.0000
  O   O1508     1.0  0.78581  0.25344  0.15788  1.0000
  O   O1509     1.0  0.80517  0.25374  0.20151  1.0000
  C   C504      1.0  0.90381  0.22510  0.14388  1.0000
  O   O1510     1.0  0.88545  0.22941  0.12602  1.0000
  O   O1511     1.0  0.92382  0.21420  0.13459  1.0000
  O   O1512     1.0  0.90217  0.23170  0.17103  1.0000
  C   C505      1.0  0.89655  0.20071  0.19291  1.0000
  O   O1513     1.0  0.87525  0.19474  0.20457  1.0000
  O   O1514     1.0  0.89876  0.20179  0.16469  1.0000
  O   O1515     1.0  0.91564  0.20560  0.20947  1.0000
  C   C506      1.0  0.80547  0.23766  0.02351  1.0000
  O   O1516     1.0  0.78335  0.23571  0.01194  1.0000
  O   O1517     1.0  0.81213  0.22330  0.04453  1.0000
  O   O1518     1.0  0.82094  0.25397  0.01407  1.0000
  C   C507      1.0  0.87517  0.26728  0.02710  1.0000
  O   O1519     1.0  0.88198  0.24533  0.03296  1.0000
  O   O1520     1.0  0.85157  0.27297  0.02701  1.0000
  O   O1521     1.0  0.89196  0.28354  0.02133  1.0000
  C   C508      1.0  0.89175  0.25000  0.90337  1.0000
  O   O1522     1.0  0.89382  0.22683  0.90011  1.0000
  O   O1523     1.0  0.88432  0.25884  0.92817  1.0000
  O   O1524     1.0  0.89712  0.26434  0.88183  1.0000
  C   C509      1.0  0.47091  0.83173  0.38787  1.0000
  O   O1525     1.0  0.47714  0.82986  0.36055  1.0000
  O   O1526     1.0  0.44862  0.83908  0.39494  1.0000
  O   O1527     1.0  0.48697  0.82625  0.40812  1.0000
  C   C510      1.0  0.50723  0.80825  0.30968  1.0000
  O   O1528     1.0  0.49350  0.80537  0.28652  1.0000
  O   O1529     1.0  0.51691  0.78963  0.32265  1.0000
  O   O1530     1.0  0.51128  0.82975  0.31986  1.0000
  C   C511      1.0  0.52549  0.83199  0.39738  1.0000
  O   O1531     1.0  0.52574  0.80862  0.39905  1.0000
  O   O1532     1.0  0.53069  0.84488  0.42027  1.0000
  O   O1533     1.0  0.52005  0.84247  0.37282  1.0000
  C   C512      1.0  0.56994  0.88797  0.38216  1.0000
  O   O1534     1.0  0.57148  0.90844  0.39582  1.0000
  O   O1535     1.0  0.54824  0.87979  0.37402  1.0000
  O   O1536     1.0  0.59011  0.87569  0.37664  1.0000
  C   C513      1.0  0.91013  0.64041  0.79509  1.0000
  O   O1537     1.0  0.90400  0.63573  0.76823  1.0000
  O   O1538     1.0  0.93336  0.63873  0.80329  1.0000
  O   O1539     1.0  0.89303  0.64677  0.81374  1.0000
  C   C514      1.0  0.77902  0.53555  0.89506  1.0000
  O   O1540     1.0  0.78569  0.51373  0.88832  1.0000
  O   O1541     1.0  0.79245  0.55373  0.88643  1.0000
  O   O1542     1.0  0.75892  0.53919  0.91043  1.0000
  C   C515      1.0  0.85937  0.61290  0.87916  1.0000
  O   O1543     1.0  0.84955  0.63376  0.88510  1.0000
  O   O1544     1.0  0.87569  0.61093  0.85826  1.0000
  O   O1545     1.0  0.85287  0.59402  0.89412  1.0000
  C   C516      1.0  0.89704  0.58677  0.80397  1.0000
  O   O1546     1.0  0.90002  0.58186  0.83148  1.0000
  O   O1547     1.0  0.87938  0.57625  0.78919  1.0000
  O   O1548     1.0  0.91172  0.60220  0.79123  1.0000
  C   C517      1.0  0.38000  0.11033  0.19152  1.0000
  O   O1549     1.0  0.36345  0.12618  0.18354  1.0000
  O   O1550     1.0  0.39912  0.10580  0.17485  1.0000
  O   O1551     1.0  0.37743  0.09901  0.21617  1.0000
  C   C518      1.0  0.30720  0.53094  0.34838  1.0000
  O   O1552     1.0  0.32090  0.51910  0.32984  1.0000
  O   O1553     1.0  0.31769  0.54524  0.36722  1.0000
  O   O1554     1.0  0.28300  0.52849  0.34808  1.0000
  C   C519      1.0  0.79750  0.36390  0.81385  1.0000
  O   O1555     1.0  0.78595  0.38431  0.81034  1.0000
  O   O1556     1.0  0.81773  0.36291  0.82957  1.0000
  O   O1557     1.0  0.78882  0.34449  0.80164  1.0000
  C   C520      1.0  0.45798  0.80428  0.04758  1.0000
  O   O1558     1.0  0.43683  0.81336  0.05627  1.0000
  O   O1559     1.0  0.45904  0.78199  0.03897  1.0000
  O   O1560     1.0  0.47807  0.81749  0.04749  1.0000
  C   C521      1.0  0.45345  0.86582  0.27280  1.0000
  O   O1561     1.0  0.44899  0.86736  0.24498  1.0000
  O   O1562     1.0  0.44497  0.84760  0.28763  1.0000
  O   O1563     1.0  0.46639  0.88250  0.28580  1.0000
  C   C522      1.0  0.48960  0.92751  0.33775  1.0000
  O   O1564     1.0  0.48301  0.92117  0.36395  1.0000
  O   O1565     1.0  0.50089  0.94795  0.33351  1.0000
  O   O1566     1.0  0.48489  0.91340  0.31579  1.0000
  C   C523      1.0  0.50556  0.87423  0.34340  1.0000
  O   O1567     1.0  0.48355  0.86899  0.33310  1.0000
  O   O1568     1.0  0.52512  0.87299  0.32659  1.0000
  O   O1569     1.0  0.50801  0.88071  0.37051  1.0000
  C   C524      1.0  0.40970  0.86285  0.45192  1.0000
  O   O1570     1.0  0.38705  0.87137  0.45282  1.0000
  O   O1571     1.0  0.42828  0.87572  0.46154  1.0000
  O   O1572     1.0  0.41377  0.84146  0.44140  1.0000
  C   C525      1.0  0.66143  0.81489  0.57357  1.0000
  O   O1573     1.0  0.66912  0.80309  0.59637  1.0000
  O   O1574     1.0  0.66448  0.80583  0.54766  1.0000
  O   O1575     1.0  0.65069  0.83574  0.57668  1.0000
  C   C526      1.0  0.69238  0.77651  0.49355  1.0000
  O   O1576     1.0  0.71610  0.77275  0.48916  1.0000
  O   O1577     1.0  0.67582  0.76441  0.47882  1.0000
  O   O1578     1.0  0.68522  0.79237  0.51267  1.0000
  C   C527      1.0  0.84996  0.68084  0.12595  1.0000
  O   O1579     1.0  0.86274  0.69164  0.14624  1.0000
  O   O1580     1.0  0.83034  0.69120  0.11482  1.0000
  O   O1581     1.0  0.85681  0.65968  0.11679  1.0000
  C   C528      1.0  0.83925  0.80800  0.15908  1.0000
  O   O1582     1.0  0.82310  0.79631  0.17488  1.0000
  O   O1583     1.0  0.83189  0.81958  0.13597  1.0000
  O   O1584     1.0  0.86276  0.80810  0.16639  1.0000
  C   C529      1.0  0.87997  0.69686  0.18324  1.0000
  O   O1585     1.0  0.89658  0.70712  0.16664  1.0000
  O   O1586     1.0  0.88159  0.67397  0.18892  1.0000
  O   O1587     1.0  0.86174  0.70949  0.19415  1.0000
  C   C530      1.0  0.78094  0.86680  0.22191  1.0000
  O   O1588     1.0  0.78348  0.84631  0.23531  1.0000
  O   O1589     1.0  0.78823  0.88660  0.23444  1.0000
  O   O1590     1.0  0.77111  0.86749  0.19598  1.0000
  C   C531      1.0  0.90004  0.87660  0.33642  1.0000
  O   O1591     1.0  0.90025  0.90001  0.33651  1.0000
  O   O1592     1.0  0.91950  0.86470  0.34548  1.0000
  O   O1593     1.0  0.88036  0.86508  0.32727  1.0000
  C   C532      1.0  0.92172  0.79088  0.24993  1.0000
  O   O1594     1.0  0.94369  0.80095  0.25000  1.0000
  O   O1595     1.0  0.91976  0.76761  0.24779  1.0000
  O   O1596     1.0  0.90171  0.80409  0.25200  1.0000
  C   C533      1.0  0.32632  0.30123  0.84694  1.0000
  O   O1597     1.0  0.31681  0.32230  0.84143  1.0000
  O   O1598     1.0  0.33210  0.29538  0.87357  1.0000
  O   O1599     1.0  0.33004  0.28601  0.82583  1.0000
  C   C534      1.0  0.56569  0.51502  0.23029  1.0000
  O   O1600     1.0  0.54545  0.52796  0.23166  1.0000
  O   O1601     1.0  0.56515  0.49250  0.23805  1.0000
  O   O1602     1.0  0.58647  0.52459  0.22116  1.0000
  C   C535      1.0  0.52714  0.61207  0.08533  1.0000
  O   O1603     1.0  0.54503  0.62041  0.10168  1.0000
  O   O1604     1.0  0.52147  0.58931  0.08620  1.0000
  O   O1605     1.0  0.51492  0.62649  0.06811  1.0000
  C   C536      1.0  0.60786  0.57699  0.17284  1.0000
  O   O1606     1.0  0.61027  0.55529  0.18312  1.0000
  O   O1607     1.0  0.59219  0.59190  0.18487  1.0000
  O   O1608     1.0  0.62112  0.58378  0.15053  1.0000
  C   C537      1.0  0.53607  0.49112  0.12133  1.0000
  O   O1609     1.0  0.54543  0.51262  0.11866  1.0000
  O   O1610     1.0  0.54033  0.47497  0.10141  1.0000
  O   O1611     1.0  0.52245  0.48577  0.14393  1.0000
  C   C538      1.0  0.83145  0.16246  0.78913  1.0000
  O   O1612     1.0  0.82422  0.15148  0.76554  1.0000
  O   O1613     1.0  0.85091  0.15474  0.80335  1.0000
  O   O1614     1.0  0.81921  0.18116  0.79850  1.0000
  C   C539      1.0  0.84358  0.88093  0.92358  1.0000
  O   O1615     1.0  0.83657  0.86363  0.94086  1.0000
  O   O1616     1.0  0.83054  0.88589  0.90040  1.0000
  O   O1617     1.0  0.86363  0.89327  0.92948  1.0000
  C   C540      1.0  0.80760  0.79591  0.83085  1.0000
  O   O1618     1.0  0.79998  0.77856  0.81401  1.0000
  O   O1619     1.0  0.83137  0.80059  0.83304  1.0000
  O   O1620     1.0  0.79146  0.80859  0.84550  1.0000
  C   C541      1.0  0.79229  0.68800  0.82434  1.0000
  O   O1621     1.0  0.79940  0.69707  0.79954  1.0000
  O   O1622     1.0  0.80633  0.67233  0.83761  1.0000
  O   O1623     1.0  0.77114  0.69460  0.83587  1.0000
  C   C542      1.0  0.68316  0.45920  0.52415  1.0000
  O   O1624     1.0  0.68916  0.48184  0.52230  1.0000
  O   O1625     1.0  0.66094  0.45211  0.51639  1.0000
  O   O1626     1.0  0.69937  0.44365  0.53376  1.0000
  C   C543      1.0  0.64389  0.42964  0.59250  1.0000
  O   O1627     1.0  0.62005  0.42543  0.58998  1.0000
  O   O1628     1.0  0.65269  0.43880  0.61650  1.0000
  O   O1629     1.0  0.65893  0.42470  0.57102  1.0000
  C   C544      1.0  0.80952  0.30792  0.60516  1.0000
  O   O1630     1.0  0.80597  0.33052  0.61130  1.0000
  O   O1631     1.0  0.79088  0.29289  0.60619  1.0000
  O   O1632     1.0  0.83171  0.30034  0.59799  1.0000
  C   C545      1.0  0.74174  0.37153  0.63165  1.0000
  O   O1633     1.0  0.75729  0.35606  0.62048  1.0000
  O   O1634     1.0  0.74912  0.38600  0.65223  1.0000
  O   O1635     1.0  0.71881  0.37253  0.62224  1.0000
  C   C546      1.0  0.16618  0.86679  0.04370  1.0000
  O   O1636     1.0  0.14823  0.87926  0.05547  1.0000
  O   O1637     1.0  0.17748  0.85019  0.05876  1.0000
  O   O1638     1.0  0.17283  0.87091  0.01687  1.0000
  C   C547      1.0  0.13293  0.91064  0.12475  1.0000
  O   O1639     1.0  0.11306  0.91658  0.13945  1.0000
  O   O1640     1.0  0.15392  0.90672  0.13828  1.0000
  O   O1641     1.0  0.13181  0.90862  0.09652  1.0000
  C   C548      1.0  0.18056  0.31759  0.86777  1.0000
  O   O1642     1.0  0.19712  0.30199  0.87642  1.0000
  O   O1643     1.0  0.18749  0.33921  0.86047  1.0000
  O   O1644     1.0  0.15707  0.31157  0.86642  1.0000
  C   C549      1.0  0.82784  0.98592  0.46990  1.0000
  O   O1645     1.0  0.81860  0.00032  0.45031  1.0000
  O   O1646     1.0  0.83089  0.96321  0.46397  1.0000
  O   O1647     1.0  0.83403  0.99422  0.49542  1.0000
  C   C550      1.0  0.24674  0.03666  0.04788  1.0000
  O   O1648     1.0  0.26833  0.02627  0.04433  1.0000
  O   O1649     1.0  0.22632  0.02544  0.04060  1.0000
  O   O1650     1.0  0.24557  0.05827  0.05870  1.0000
  C   C551      1.0  0.92189  0.49443  0.91324  1.0000
  O   O1651     1.0  0.91991  0.47111  0.91417  1.0000
  O   O1652     1.0  0.90937  0.50664  0.89393  1.0000
  O   O1653     1.0  0.93638  0.50554  0.93162  1.0000
  C   C552      1.0  0.93913  0.04579  0.85349  1.0000
  O   O1654     1.0  0.96165  0.05249  0.84644  1.0000
  O   O1655     1.0  0.92408  0.06087  0.86626  1.0000
  O   O1656     1.0  0.93167  0.02401  0.84776  1.0000
  C   C553      1.0  0.98631  0.09732  0.74051  1.0000
  O   O1657     1.0  0.96821  0.09163  0.72285  1.0000
  O   O1658     1.0  0.98264  0.09699  0.76855  1.0000
  O   O1659     1.0  0.00808  0.10334  0.73014  1.0000
  C   C554      1.0  0.99268  0.00922  0.67499  1.0000
  O   O1660     1.0  0.97047  0.01626  0.66714  1.0000
  O   O1661     1.0  0.00919  0.00356  0.65531  1.0000
  O   O1662     1.0  0.99838  0.00784  0.70251  1.0000
  C   C555      1.0  0.91456  0.11771  0.70680  1.0000
  O   O1663     1.0  0.89662  0.11159  0.72446  1.0000
  O   O1664     1.0  0.91540  0.13943  0.69624  1.0000
  O   O1665     1.0  0.93166  0.10212  0.69970  1.0000
  C   C556      1.0  0.88897  0.07347  0.86254  1.0000
  O   O1666     1.0  0.88939  0.09688  0.86278  1.0000
  O   O1667     1.0  0.88412  0.06201  0.83846  1.0000
  O   O1668     1.0  0.89340  0.06152  0.88638  1.0000
  C   C557      1.0  0.89621  0.16574  0.61135  1.0000
  O   O1669     1.0  0.90621  0.16320  0.63702  1.0000
  O   O1670     1.0  0.90387  0.15252  0.58971  1.0000
  O   O1671     1.0  0.87855  0.18150  0.60732  1.0000
  C   C558      1.0  0.84764  0.39153  0.37807  1.0000
  O   O1672     1.0  0.86276  0.40687  0.36588  1.0000
  O   O1673     1.0  0.82359  0.39488  0.37674  1.0000
  O   O1674     1.0  0.85658  0.37283  0.39159  1.0000
  C   C559      1.0  0.72716  0.48959  0.25918  1.0000
  O   O1675     1.0  0.70335  0.48691  0.25429  1.0000
  O   O1676     1.0  0.73709  0.51096  0.25860  1.0000
  O   O1677     1.0  0.74104  0.47090  0.26466  1.0000
  C   C560      1.0  0.78430  0.38383  0.22677  1.0000
  O   O1678     1.0  0.80804  0.38413  0.22054  1.0000
  O   O1679     1.0  0.77092  0.40318  0.22339  1.0000
  O   O1680     1.0  0.77395  0.36418  0.23638  1.0000
  C   C561      1.0  0.76547  0.43556  0.35950  1.0000
  O   O1681     1.0  0.76655  0.45854  0.35419  1.0000
  O   O1682     1.0  0.75118  0.42753  0.38029  1.0000
  O   O1683     1.0  0.77868  0.42062  0.34402  1.0000
  C   C562      1.0  0.20932  0.35446  0.33211  1.0000
  O   O1684     1.0  0.20254  0.33745  0.31429  1.0000
  O   O1685     1.0  0.23285  0.36003  0.33471  1.0000
  O   O1686     1.0  0.19257  0.36589  0.34733  1.0000
  C   C563      1.0  0.28901  0.28741  0.33279  1.0000
  O   O1687     1.0  0.26979  0.27379  0.33830  1.0000
  O   O1688     1.0  0.31003  0.28383  0.34641  1.0000
  O   O1689     1.0  0.28721  0.30461  0.31366  1.0000
  C   C564      1.0  0.96127  0.30984  0.39656  1.0000
  O   O1690     1.0  0.96822  0.33228  0.39692  1.0000
  O   O1691     1.0  0.96263  0.29697  0.42020  1.0000
  O   O1692     1.0  0.95296  0.30027  0.37255  1.0000
  C   C565      1.0  0.11166  0.30448  0.31846  1.0000
  O   O1693     1.0  0.12055  0.32506  0.32717  1.0000
  O   O1694     1.0  0.12588  0.28548  0.31842  1.0000
  O   O1695     1.0  0.08855  0.30290  0.30979  1.0000
  C   C566      1.0  0.04419  0.25254  0.39416  1.0000
  O   O1696     1.0  0.05226  0.23050  0.39236  1.0000
  O   O1697     1.0  0.04102  0.26249  0.41957  1.0000
  O   O1698     1.0  0.03928  0.26463  0.37055  1.0000
  C   C567      1.0  0.67532  0.36601  0.38007  1.0000
  O   O1699     1.0  0.67378  0.38938  0.38025  1.0000
  O   O1700     1.0  0.66674  0.35364  0.40198  1.0000
  O   O1701     1.0  0.68544  0.35501  0.35798  1.0000
  C   C568      1.0  0.71204  0.28355  0.41093  1.0000
  O   O1702     1.0  0.72126  0.28018  0.43686  1.0000
  O   O1703     1.0  0.68857  0.27897  0.40589  1.0000
  O   O1704     1.0  0.72628  0.29150  0.39005  1.0000
  C   C569      1.0  0.81270  0.20509  0.45292  1.0000
  O   O1705     1.0  0.79755  0.22015  0.44029  1.0000
  O   O1706     1.0  0.82229  0.18737  0.43813  1.0000
  O   O1707     1.0  0.81826  0.20775  0.48034  1.0000
  C   C570      1.0  0.77585  0.25234  0.51172  1.0000
  O   O1708     1.0  0.79503  0.24653  0.52768  1.0000
  O   O1709     1.0  0.75343  0.24620  0.51986  1.0000
  O   O1710     1.0  0.77909  0.26429  0.48762  1.0000
  C   C571      1.0  0.95775  0.86380  0.87185  1.0000
  O   O1711     1.0  0.96531  0.87786  0.85095  1.0000
  O   O1712     1.0  0.97373  0.85544  0.89069  1.0000
  O   O1713     1.0  0.93422  0.85810  0.87391  1.0000
  C   C572      1.0  0.60263  0.24273  0.71036  1.0000
  O   O1714     1.0  0.59213  0.25290  0.68794  1.0000
  O   O1715     1.0  0.62200  0.22888  0.70675  1.0000
  O   O1716     1.0  0.59376  0.24641  0.73639  1.0000
  C   C573      1.0  0.57388  0.88797  0.89586  1.0000
  O   O1717     1.0  0.55976  0.89022  0.91880  1.0000
  O   O1718     1.0  0.56389  0.88768  0.87000  1.0000
  O   O1719     1.0  0.59800  0.88601  0.89878  1.0000
  C   C574      1.0  0.63163  0.76940  0.94282  1.0000
  O   O1720     1.0  0.65538  0.77430  0.94460  1.0000
  O   O1721     1.0  0.61516  0.78597  0.94854  1.0000
  O   O1722     1.0  0.62436  0.74793  0.93532  1.0000
  C   C575      1.0  0.26063  0.49911  0.39183  1.0000
  O   O1723     1.0  0.27978  0.50990  0.38021  1.0000
  O   O1724     1.0  0.24833  0.48304  0.37700  1.0000
  O   O1725     1.0  0.25378  0.50439  0.41829  1.0000
  C   C576      1.0  0.32583  0.49426  0.42781  1.0000
  O   O1726     1.0  0.34060  0.51193  0.42075  1.0000
  O   O1727     1.0  0.30961  0.48619  0.40906  1.0000
  O   O1728     1.0  0.32728  0.48465  0.45362  1.0000
  C   C577      1.0  0.22535  0.41637  0.44889  1.0000
  O   O1729     1.0  0.21672  0.40491  0.42629  1.0000
  O   O1730     1.0  0.24374  0.43150  0.44588  1.0000
  O   O1731     1.0  0.21559  0.41270  0.47449  1.0000
  C   C578      1.0  0.14325  0.36027  0.46582  1.0000
  O   O1732     1.0  0.13132  0.36648  0.48936  1.0000
  O   O1733     1.0  0.16748  0.35818  0.46623  1.0000
  O   O1734     1.0  0.13095  0.35615  0.44186  1.0000
  C   C579      1.0  0.65675  0.04381  0.10500  1.0000
  O   O1735     1.0  0.66901  0.02429  0.09857  1.0000
  O   O1736     1.0  0.66232  0.05583  0.12846  1.0000
  O   O1737     1.0  0.63892  0.05131  0.08797  1.0000
  C   C580      1.0  0.51509  0.09500  0.33459  1.0000
  O   O1738     1.0  0.52994  0.09683  0.35695  1.0000
  O   O1739     1.0  0.52195  0.10347  0.30939  1.0000
  O   O1740     1.0  0.49338  0.08469  0.33744  1.0000
  C   C581      1.0  0.47259  0.17780  0.37262  1.0000
  O   O1741     1.0  0.45179  0.17557  0.38709  1.0000
  O   O1742     1.0  0.47364  0.17131  0.34540  1.0000
  O   O1743     1.0  0.49234  0.18653  0.38537  1.0000
  C   C582      1.0  0.26890  0.81758  0.86145  1.0000
  O   O1744     1.0  0.28963  0.82525  0.87303  1.0000
  O   O1745     1.0  0.26302  0.82379  0.83497  1.0000
  O   O1746     1.0  0.25404  0.80370  0.87634  1.0000
  C   C583      1.0  0.65478  0.83395  0.37138  1.0000
  O   O1747     1.0  0.64373  0.85456  0.37532  1.0000
  O   O1748     1.0  0.67563  0.82924  0.38485  1.0000
  O   O1749     1.0  0.64498  0.81805  0.35398  1.0000
  C   C584      1.0  0.27046  0.92689  0.53411  1.0000
  O   O1750     1.0  0.28382  0.94586  0.53993  1.0000
  O   O1751     1.0  0.25682  0.91709  0.55438  1.0000
  O   O1752     1.0  0.27074  0.91771  0.50802  1.0000
  C   C585      1.0  0.31908  0.94717  0.60150  1.0000
  O   O1753     1.0  0.32103  0.92393  0.59892  1.0000
  O   O1754     1.0  0.31030  0.95648  0.62543  1.0000
  O   O1755     1.0  0.32591  0.96111  0.58014  1.0000
  C   C586      1.0  0.12946  0.15096  0.44432  1.0000
  O   O1756     1.0  0.12431  0.17222  0.43405  1.0000
  O   O1757     1.0  0.15000  0.14014  0.43662  1.0000
  O   O1758     1.0  0.11407  0.14052  0.46229  1.0000
  C   C587      1.0  0.96902  0.14480  0.51567  1.0000
  O   O1759     1.0  0.99332  0.14376  0.51619  1.0000
  O   O1760     1.0  0.95715  0.14305  0.49100  1.0000
  O   O1761     1.0  0.95658  0.14759  0.53982  1.0000
  C   C588      1.0  0.00378  0.45424  0.69759  1.0000
  O   O1762     1.0  0.98046  0.45035  0.70419  1.0000
  O   O1763     1.0  0.01309  0.44538  0.67368  1.0000
  O   O1764     1.0  0.01779  0.46699  0.71490  1.0000
  C   C589      1.0  0.01343  0.57832  0.17059  1.0000
  O   O1765     1.0  0.00893  0.58369  0.14348  1.0000
  O   O1766     1.0  0.01413  0.59523  0.19019  1.0000
  O   O1767     1.0  0.01723  0.55604  0.17809  1.0000
  C   C590      1.0  0.51444  0.96955  0.96159  1.0000
  O   O1768     1.0  0.50490  0.95053  0.94935  1.0000
  O   O1769     1.0  0.53849  0.97109  0.96549  1.0000
  O   O1770     1.0  0.49993  0.98704  0.96993  1.0000
  C   C591      1.0  0.58858  0.91535  0.99700  1.0000
  O   O1771     1.0  0.58421  0.93837  0.99795  1.0000
  O   O1772     1.0  0.57012  0.90015  0.99855  1.0000
  O   O1773     1.0  0.61141  0.90753  0.99450  1.0000
  C   C592      1.0  0.52324  0.86579  0.97980  1.0000
  O   O1774     1.0  0.52310  0.88479  0.99637  1.0000
  O   O1775     1.0  0.53240  0.86702  0.95356  1.0000
  O   O1776     1.0  0.51422  0.84556  0.98946  1.0000
  C   C593      1.0  0.58186  0.87494  0.07182  1.0000
  O   O1777     1.0  0.57226  0.88718  0.05038  1.0000
  O   O1778     1.0  0.60598  0.87223  0.07364  1.0000
  O   O1779     1.0  0.56734  0.86541  0.09143  1.0000
  C   C594      1.0  0.57513  0.48157  0.31078  1.0000
  O   O1780     1.0  0.58317  0.49082  0.28646  1.0000
  O   O1781     1.0  0.56516  0.46021  0.31092  1.0000
  O   O1782     1.0  0.57706  0.49368  0.33495  1.0000
  C   C595      1.0  0.49844  0.40064  0.32715  1.0000
  O   O1783     1.0  0.50771  0.40688  0.30204  1.0000
  O   O1784     1.0  0.50108  0.37868  0.33648  1.0000
  O   O1785     1.0  0.48654  0.41637  0.34293  1.0000
  C   C596      1.0  0.11095  0.39057  0.59435  1.0000
  O   O1786     1.0  0.12366  0.40609  0.60957  1.0000
  O   O1787     1.0  0.11720  0.38613  0.56747  1.0000
  O   O1788     1.0  0.09199  0.37949  0.60601  1.0000
  C   C597      1.0  0.18732  0.13419  0.31433  1.0000
  O   O1789     1.0  0.18679  0.11092  0.31122  1.0000
  O   O1790     1.0  0.17212  0.14766  0.29934  1.0000
  O   O1791     1.0  0.20305  0.14399  0.33243  1.0000
  C   C598      1.0  0.12129  0.04752  0.41813  1.0000
  O   O1792     1.0  0.10343  0.03763  0.43322  1.0000
  O   O1793     1.0  0.13667  0.06247  0.43059  1.0000
  O   O1794     1.0  0.12377  0.04246  0.39059  1.0000
  C   C599      1.0  0.10089  0.91556  0.36406  1.0000
  O   O1795     1.0  0.12081  0.90500  0.37415  1.0000
  O   O1796     1.0  0.09783  0.93859  0.36775  1.0000
  O   O1797     1.0  0.08403  0.90309  0.35027  1.0000
  C   C600      1.0  0.13204  0.12093  0.29596  1.0000
  O   O1798     1.0  0.10947  0.12964  0.29483  1.0000
  O   O1799     1.0  0.14457  0.12166  0.32026  1.0000
  O   O1800     1.0  0.14208  0.11149  0.27279  1.0000
  C   C601      1.0  0.09253  0.07444  0.31027  1.0000
  O   O1801     1.0  0.09802  0.05215  0.30441  1.0000
  O   O1802     1.0  0.07004  0.08011  0.31862  1.0000
  O   O1803     1.0  0.10953  0.09106  0.30777  1.0000
  C   C602      1.0  0.08434  0.20802  0.36014  1.0000
  O   O1804     1.0  0.09669  0.21800  0.38138  1.0000
  O   O1805     1.0  0.06657  0.19272  0.36579  1.0000
  O   O1806     1.0  0.08976  0.21334  0.33325  1.0000
  C   C603      1.0  0.06493  0.95842  0.31679  1.0000
  O   O1807     1.0  0.07611  0.97207  0.29778  1.0000
  O   O1808     1.0  0.06671  0.93512  0.31483  1.0000
  O   O1809     1.0  0.05197  0.96807  0.33776  1.0000
  C   C604      1.0  0.83376  0.98836  0.73365  1.0000
  O   O1810     1.0  0.82292  0.00799  0.74258  1.0000
  O   O1811     1.0  0.83750  0.98490  0.70594  1.0000
  O   O1812     1.0  0.84086  0.97220  0.75243  1.0000
  C   C605      1.0  0.78765  0.04402  0.83535  1.0000
  O   O1813     1.0  0.76347  0.04145  0.83570  1.0000
  O   O1814     1.0  0.79991  0.04610  0.85972  1.0000
  O   O1815     1.0  0.79957  0.04451  0.81063  1.0000
  C   C606      1.0  0.66781  0.02412  0.74317  1.0000
  O   O1816     1.0  0.66803  0.00837  0.76416  1.0000
  O   O1817     1.0  0.67786  0.04520  0.74707  1.0000
  O   O1818     1.0  0.65753  0.01879  0.71828  1.0000
  C   C607      1.0  0.74810  0.02504  0.80302  1.0000
  O   O1819     1.0  0.76882  0.02303  0.78835  1.0000
  O   O1820     1.0  0.74031  0.00725  0.81906  1.0000
  O   O1821     1.0  0.73517  0.04484  0.80164  1.0000
  C   C608      1.0  0.30655  0.09912  0.83106  1.0000
  O   O1822     1.0  0.30057  0.08909  0.85572  1.0000
  O   O1823     1.0  0.29094  0.09863  0.80931  1.0000
  O   O1824     1.0  0.32814  0.10965  0.82815  1.0000
  C   C609      1.0  0.25636  0.03765  0.54048  1.0000
  O   O1825     1.0  0.24157  0.05604  0.53717  1.0000
  O   O1826     1.0  0.26033  0.02888  0.56637  1.0000
  O   O1827     1.0  0.26718  0.02803  0.51790  1.0000
  C   C610      1.0  0.22236  0.01753  0.68620  1.0000
  O   O1828     1.0  0.21609  0.02394  0.65992  1.0000
  O   O1829     1.0  0.23238  0.99653  0.69074  1.0000
  O   O1830     1.0  0.21860  0.03212  0.70794  1.0000
  C   C611      1.0  0.29064  0.03267  0.87313  1.0000
  O   O1831     1.0  0.29867  0.03654  0.84677  1.0000
  O   O1832     1.0  0.30327  0.01883  0.89064  1.0000
  O   O1833     1.0  0.26998  0.04265  0.88199  1.0000
  C   C612      1.0  0.32973  0.03007  0.80001  1.0000
  O   O1834     1.0  0.33194  0.02368  0.77284  1.0000
  O   O1835     1.0  0.31695  0.04919  0.80681  1.0000
  O   O1836     1.0  0.34030  0.01734  0.82038  1.0000
  C   C613      1.0  0.26098  0.04635  0.70071  1.0000
  O   O1837     1.0  0.27051  0.05503  0.67682  1.0000
  O   O1838     1.0  0.25806  0.06018  0.72334  1.0000
  O   O1839     1.0  0.25437  0.02384  0.70197  1.0000
  C   C614      1.0  0.20180  0.11523  0.50145  1.0000
  O   O1840     1.0  0.18906  0.11031  0.47803  1.0000
  O   O1841     1.0  0.19296  0.10946  0.52694  1.0000
  O   O1842     1.0  0.22338  0.12592  0.49939  1.0000
  C   C615      1.0  0.59101  0.69768  0.32094  1.0000
  O   O1843     1.0  0.60987  0.70669  0.30672  1.0000
  O   O1844     1.0  0.57744  0.71144  0.33756  1.0000
  O   O1845     1.0  0.58572  0.67491  0.31854  1.0000
  C   C616      1.0  0.43600  0.09540  0.74709  1.0000
  O   O1846     1.0  0.45491  0.09184  0.72976  1.0000
  O   O1847     1.0  0.42915  0.07863  0.76521  1.0000
  O   O1848     1.0  0.42394  0.11572  0.74630  1.0000
  C   C617      1.0  0.41808  0.22730  0.78446  1.0000
  O   O1849     1.0  0.40905  0.20746  0.79524  1.0000
  O   O1850     1.0  0.42701  0.22759  0.75808  1.0000
  O   O1851     1.0  0.41817  0.24685  0.80007  1.0000
  C   C618      1.0  0.37879  0.21032  0.71228  1.0000
  O   O1852     1.0  0.38549  0.19585  0.73317  1.0000
  O   O1853     1.0  0.39477  0.22562  0.70161  1.0000
  O   O1854     1.0  0.35611  0.20949  0.70206  1.0000
  C   C619      1.0  0.14718  0.62034  0.61220  1.0000
  O   O1855     1.0  0.13895  0.63470  0.59195  1.0000
  O   O1856     1.0  0.16359  0.62800  0.63097  1.0000
  O   O1857     1.0  0.13899  0.59832  0.61368  1.0000
  C   C620      1.0  0.20143  0.56526  0.68149  1.0000
  O   O1858     1.0  0.20455  0.58617  0.66926  1.0000
  O   O1859     1.0  0.19180  0.56384  0.70748  1.0000
  O   O1860     1.0  0.20794  0.54577  0.66773  1.0000
  C   C621      1.0  0.21063  0.40794  0.29857  1.0000
  O   O1861     1.0  0.18994  0.41853  0.29092  1.0000
  O   O1862     1.0  0.23189  0.41906  0.29560  1.0000
  O   O1863     1.0  0.21006  0.38623  0.30919  1.0000
  C   C622      1.0  0.19744  0.42719  0.24613  1.0000
  O   O1864     1.0  0.20406  0.40850  0.23089  1.0000
  O   O1865     1.0  0.21439  0.44151  0.25676  1.0000
  O   O1866     1.0  0.17386  0.43156  0.25074  1.0000
  C   C623      1.0  0.19471  0.34498  0.15221  1.0000
  O   O1867     1.0  0.21515  0.35040  0.16613  1.0000
  O   O1868     1.0  0.17569  0.35957  0.15293  1.0000
  O   O1869     1.0  0.19329  0.32497  0.13757  1.0000
  C   C624      1.0  0.29773  0.40491  0.13385  1.0000
  O   O1870     1.0  0.28898  0.38417  0.12554  1.0000
  O   O1871     1.0  0.31509  0.40593  0.15369  1.0000
  O   O1872     1.0  0.28912  0.42463  0.12231  1.0000
  C   C625      1.0  0.19658  0.45891  0.10960  1.0000
  O   O1873     1.0  0.20944  0.47126  0.12847  1.0000
  O   O1874     1.0  0.18254  0.44119  0.11830  1.0000
  O   O1875     1.0  0.19777  0.46428  0.08203  1.0000
  C   C626      1.0  0.63750  0.24041  0.83331  1.0000
  O   O1876     1.0  0.63727  0.26370  0.83618  1.0000
  O   O1877     1.0  0.65805  0.22845  0.83785  1.0000
  O   O1878     1.0  0.61718  0.22908  0.82590  1.0000
  C   C627      1.0  0.64818  0.20358  0.78644  1.0000
  O   O1879     1.0  0.63973  0.22420  0.79558  1.0000
  O   O1880     1.0  0.63974  0.18368  0.79770  1.0000
  O   O1881     1.0  0.66507  0.20286  0.76604  1.0000
  C   C628      1.0  0.68924  0.78650  0.32907  1.0000
  O   O1882     1.0  0.69054  0.80836  0.31903  1.0000
  O   O1883     1.0  0.67980  0.78252  0.35477  1.0000
  O   O1884     1.0  0.69737  0.76862  0.31341  1.0000
  C   C629      1.0  0.70206  0.87934  0.64534  1.0000
  O   O1885     1.0  0.69724  0.90123  0.65369  1.0000
  O   O1886     1.0  0.68804  0.86904  0.62581  1.0000
  O   O1887     1.0  0.72090  0.86775  0.65652  1.0000
  C   C630      1.0  0.02885  0.14984  0.32838  1.0000
  O   O1888     1.0  0.00814  0.15807  0.33944  1.0000
  O   O1889     1.0  0.04876  0.16330  0.32796  1.0000
  O   O1890     1.0  0.02966  0.12815  0.31774  1.0000
  C   C631      1.0  0.94206  0.19767  0.09671  1.0000
  O   O1891     1.0  0.96050  0.21277  0.09951  1.0000
  O   O1892     1.0  0.94189  0.17781  0.11173  1.0000
  O   O1893     1.0  0.92379  0.20244  0.07889  1.0000
  C   C632      1.0  0.95963  0.18669  0.23091  1.0000
  O   O1894     1.0  0.97585  0.17014  0.23766  1.0000
  O   O1895     1.0  0.94070  0.19083  0.24801  1.0000
  O   O1896     1.0  0.96234  0.19909  0.20706  1.0000
  C   C633      1.0  0.14974  0.78695  0.38963  1.0000
  O   O1897     1.0  0.15868  0.77720  0.41322  1.0000
  O   O1898     1.0  0.13424  0.80493  0.39147  1.0000
  O   O1899     1.0  0.15630  0.77872  0.36420  1.0000
  C   C634      1.0  0.88590  0.25517  0.38785  1.0000
  O   O1900     1.0  0.88712  0.27063  0.40910  1.0000
  O   O1901     1.0  0.86426  0.24747  0.37883  1.0000
  O   O1902     1.0  0.90632  0.24740  0.37562  1.0000
  C   C635      1.0  0.26780  0.70576  0.25014  1.0000
  O   O1903     1.0  0.28101  0.71750  0.26924  1.0000
  O   O1904     1.0  0.26950  0.68244  0.24852  1.0000
  O   O1905     1.0  0.25289  0.71734  0.23265  1.0000
  C   C636      1.0  0.15645  0.01524  0.70000  1.0000
  O   O1906     1.0  0.17427  0.00558  0.71537  1.0000
  O   O1907     1.0  0.15130  0.00685  0.67421  1.0000
  O   O1908     1.0  0.14378  0.03329  0.71042  1.0000
  C   C637      1.0  0.10456  0.86734  0.17598  1.0000
  O   O1909     1.0  0.12146  0.88114  0.16428  1.0000
  O   O1910     1.0  0.08103  0.87070  0.17000  1.0000
  O   O1911     1.0  0.11119  0.85018  0.19366  1.0000
  C   C638      1.0  0.12414  0.89792  0.26878  1.0000
  O   O1912     1.0  0.12000  0.87837  0.25394  1.0000
  O   O1913     1.0  0.13590  0.89681  0.29358  1.0000
  O   O1914     1.0  0.11652  0.91858  0.25882  1.0000
  C   C639      1.0  0.95716  0.30725  0.23256  1.0000
  O   O1915     1.0  0.96959  0.31773  0.25338  1.0000
  O   O1916     1.0  0.95352  0.28411  0.23329  1.0000
  O   O1917     1.0  0.94837  0.31991  0.21101  1.0000
  C   C640      1.0  0.04051  0.34486  0.26297  1.0000
  O   O1918     1.0  0.02875  0.32484  0.26830  1.0000
  O   O1919     1.0  0.04576  0.35955  0.28420  1.0000
  O   O1920     1.0  0.04702  0.35019  0.23641  1.0000
  C   C641      1.0  0.93051  0.30148  0.31845  1.0000
  O   O1921     1.0  0.92066  0.30528  0.34398  1.0000
  O   O1922     1.0  0.95468  0.30014  0.31565  1.0000
  O   O1923     1.0  0.91618  0.29902  0.29572  1.0000
  C   C642      1.0  0.47937  0.34481  0.53261  1.0000
  O   O1924     1.0  0.47554  0.36594  0.54399  1.0000
  O   O1925     1.0  0.48061  0.32592  0.54930  1.0000
  O   O1926     1.0  0.48196  0.34257  0.50454  1.0000
  C   C643      1.0  0.39211  0.33913  0.48963  1.0000
  O   O1927     1.0  0.37936  0.32408  0.47377  1.0000
  O   O1928     1.0  0.38866  0.33990  0.51769  1.0000
  O   O1929     1.0  0.40831  0.35341  0.47742  1.0000
  C   C644      1.0  0.26136  0.27304  0.02512  1.0000
  O   O1930     1.0  0.27292  0.29074  0.01234  1.0000
  O   O1931     1.0  0.25992  0.25216  0.01239  1.0000
  O   O1932     1.0  0.25124  0.27622  0.05063  1.0000
  C   C645      1.0  0.17443  0.66074  0.71943  1.0000
  O   O1933     1.0  0.17801  0.66558  0.74687  1.0000
  O   O1934     1.0  0.17973  0.67676  0.69968  1.0000
  O   O1935     1.0  0.16556  0.63988  0.71174  1.0000
  C   C646      1.0  0.41198  0.91587  0.01675  1.0000
  O   O1936     1.0  0.41598  0.91597  0.98877  1.0000
  O   O1937     1.0  0.40723  0.89572  0.03010  1.0000
  O   O1938     1.0  0.41273  0.93592  0.03138  1.0000
  C   C647      1.0  0.44111  0.78619  0.93239  1.0000
  O   O1939     1.0  0.42890  0.76605  0.92982  1.0000
  O   O1940     1.0  0.45559  0.79350  0.91138  1.0000
  O   O1941     1.0  0.43884  0.79902  0.95597  1.0000
  C   C648      1.0  0.38975  0.83572  0.82937  1.0000
  O   O1942     1.0  0.39157  0.85381  0.84725  1.0000
  O   O1943     1.0  0.37343  0.83625  0.80834  1.0000
  O   O1944     1.0  0.40425  0.81710  0.83252  1.0000
  C   C649      1.0  0.45855  0.83227  0.84785  1.0000
  O   O1945     1.0  0.43546  0.83940  0.84551  1.0000
  O   O1946     1.0  0.46739  0.82600  0.87316  1.0000
  O   O1947     1.0  0.47280  0.83141  0.82488  1.0000
  C   C650      1.0  0.41826  0.87931  0.93315  1.0000
  O   O1948     1.0  0.43482  0.88868  0.95056  1.0000
  O   O1949     1.0  0.40976  0.89172  0.91123  1.0000
  O   O1950     1.0  0.41020  0.85753  0.93766  1.0000
  C   C651      1.0  0.51009  0.95046  0.10345  1.0000
  O   O1951     1.0  0.52746  0.96556  0.11118  1.0000
  O   O1952     1.0  0.51505  0.92758  0.10186  1.0000
  O   O1953     1.0  0.48775  0.95824  0.09731  1.0000
  C   C652      1.0  0.46168  0.91416  0.06154  1.0000
  O   O1954     1.0  0.46427  0.89128  0.05634  1.0000
  O   O1955     1.0  0.46210  0.92205  0.08824  1.0000
  O   O1956     1.0  0.45868  0.92916  0.04004  1.0000
  C   C653      1.0  0.94180  0.02351  0.26515  1.0000
  O   O1957     1.0  0.94342  0.02150  0.23695  1.0000
  O   O1958     1.0  0.96042  0.03235  0.27995  1.0000
  O   O1959     1.0  0.92157  0.01667  0.27855  1.0000
  C   C654      1.0  0.75358  0.78898  0.09049  1.0000
  O   O1960     1.0  0.73716  0.78711  0.06968  1.0000
  O   O1961     1.0  0.75509  0.77236  0.11040  1.0000
  O   O1962     1.0  0.76849  0.80747  0.09139  1.0000
  C   C655      1.0  0.75594  0.74775  0.20630  1.0000
  O   O1963     1.0  0.74600  0.76497  0.22164  1.0000
  O   O1964     1.0  0.74554  0.74104  0.18198  1.0000
  O   O1965     1.0  0.77628  0.73724  0.21528  1.0000
  C   C656      1.0  0.68833  0.72477  0.18801  1.0000
  O   O1966     1.0  0.66725  0.72476  0.17385  1.0000
  O   O1967     1.0  0.70275  0.74362  0.18724  1.0000
  O   O1968     1.0  0.69500  0.70593  0.20295  1.0000
  C   C657      1.0  0.73464  0.80823  0.30350  1.0000
  O   O1969     1.0  0.73246  0.83145  0.30090  1.0000
  O   O1970     1.0  0.73359  0.79829  0.32915  1.0000
  O   O1971     1.0  0.73787  0.79495  0.28044  1.0000
  C   C658      1.0  0.67759  0.86500  0.31076  1.0000
  O   O1972     1.0  0.66396  0.86768  0.33403  1.0000
  O   O1973     1.0  0.68174  0.84357  0.30039  1.0000
  O   O1974     1.0  0.68708  0.88375  0.29786  1.0000
  C   C659      1.0  0.86922  0.91824  0.24880  1.0000
  O   O1975     1.0  0.85376  0.91471  0.27028  1.0000
  O   O1976     1.0  0.89322  0.91795  0.25348  1.0000
  O   O1977     1.0  0.86069  0.92206  0.22264  1.0000
  C   C660      1.0  0.09486  0.87680  0.49394  1.0000
  O   O1978     1.0  0.08192  0.87073  0.51681  1.0000
  O   O1979     1.0  0.11719  0.86804  0.49010  1.0000
  O   O1980     1.0  0.08547  0.89163  0.47491  1.0000
  C   C661      1.0  0.31869  0.95334  0.91808  1.0000
  O   O1981     1.0  0.32519  0.93710  0.89910  1.0000
  O   O1982     1.0  0.32708  0.95216  0.94467  1.0000
  O   O1983     1.0  0.30380  0.97076  0.91047  1.0000
  C   C662      1.0  0.26422  0.14664  0.87228  1.0000
  O   O1984     1.0  0.26058  0.12466  0.88109  1.0000
  O   O1985     1.0  0.25301  0.15446  0.84895  1.0000
  O   O1986     1.0  0.27906  0.16080  0.88680  1.0000
  C   C663      1.0  0.28822  0.82751  0.72171  1.0000
  O   O1987     1.0  0.27172  0.84177  0.73339  1.0000
  O   O1988     1.0  0.31116  0.83479  0.71825  1.0000
  O   O1989     1.0  0.28178  0.80597  0.71349  1.0000
  C   C664      1.0  0.32081  0.87785  0.64992  1.0000
  O   O1990     1.0  0.32570  0.85524  0.65463  1.0000
  O   O1991     1.0  0.33352  0.88977  0.63051  1.0000
  O   O1992     1.0  0.30321  0.88854  0.66462  1.0000
  C   C665      1.0  0.54276  0.14611  0.28146  1.0000
  O   O1993     1.0  0.55795  0.13178  0.29523  1.0000
  O   O1994     1.0  0.51969  0.13966  0.27698  1.0000
  O   O1995     1.0  0.55064  0.16689  0.27217  1.0000
  C   C666      1.0  0.54789  0.09723  0.18644  1.0000
  O   O1996     1.0  0.54680  0.07647  0.17339  1.0000
  O   O1997     1.0  0.52782  0.11029  0.18904  1.0000
  O   O1998     1.0  0.56905  0.10493  0.19689  1.0000
  C   C667      1.0  0.60592  0.02952  0.13955  1.0000
  O   O1999     1.0  0.61495  0.04976  0.12992  1.0000
  O   O2000     1.0  0.58491  0.02132  0.12925  1.0000
  O   O2001     1.0  0.61789  0.01749  0.15948  1.0000
  C   C668      1.0  0.62223  0.98686  0.11070  1.0000
  O   O2002     1.0  0.61972  0.00988  0.11498  1.0000
  O   O2003     1.0  0.60522  0.97506  0.09631  1.0000
  O   O2004     1.0  0.64175  0.97564  0.12081  1.0000
  C   C669      1.0  0.67146  0.37086  0.28286  1.0000
  O   O2005     1.0  0.68377  0.35603  0.29947  1.0000
  O   O2006     1.0  0.66008  0.36292  0.25971  1.0000
  O   O2007     1.0  0.67053  0.39363  0.28940  1.0000
  C   C670      1.0  0.42741  0.10282  0.58065  1.0000
  O   O2008     1.0  0.42693  0.11462  0.60514  1.0000
  O   O2009     1.0  0.44869  0.09620  0.56947  1.0000
  O   O2010     1.0  0.40661  0.09765  0.56733  1.0000
  C   C671      1.0  0.07548  0.77918  0.88821  1.0000
  O   O2011     1.0  0.08799  0.79168  0.86916  1.0000
  O   O2012     1.0  0.05261  0.78514  0.89465  1.0000
  O   O2013     1.0  0.08585  0.76073  0.90081  1.0000
  C   C672      1.0  0.57222  0.59357  0.70568  1.0000
  O   O2014     1.0  0.55315  0.59048  0.68847  1.0000
  O   O2015     1.0  0.59482  0.59067  0.69578  1.0000
  O   O2016     1.0  0.56869  0.59956  0.73279  1.0000
  C   C673      1.0  0.46079  0.59885  0.57147  1.0000
  O   O2017     1.0  0.46892  0.61758  0.55734  1.0000
  O   O2018     1.0  0.43858  0.59038  0.56610  1.0000
  O   O2019     1.0  0.47487  0.58859  0.59098  1.0000
  C   C674      1.0  0.49368  0.69080  0.39944  1.0000
  O   O2020     1.0  0.48987  0.70017  0.42505  1.0000
  O   O2021     1.0  0.51639  0.68683  0.39046  1.0000
  O   O2022     1.0  0.47478  0.68540  0.38281  1.0000
  C   C675      1.0  0.50698  0.53084  0.63420  1.0000
  O   O2023     1.0  0.51659  0.53760  0.60946  1.0000
  O   O2024     1.0  0.49685  0.50965  0.63661  1.0000
  O   O2025     1.0  0.50750  0.54527  0.65652  1.0000
  C   C676      1.0  0.40916  0.04842  0.80159  1.0000
  O   O2026     1.0  0.39995  0.05149  0.82758  1.0000
  O   O2027     1.0  0.39459  0.04948  0.77891  1.0000
  O   O2028     1.0  0.43294  0.04429  0.79828  1.0000
  C   C677      1.0  0.12401  0.07544  0.66043  1.0000
  O   O2029     1.0  0.10624  0.06129  0.65139  1.0000
  O   O2030     1.0  0.13704  0.08779  0.64173  1.0000
  O   O2031     1.0  0.12875  0.07724  0.68817  1.0000
  C   C678      1.0  0.78432  0.32080  0.74529  1.0000
  O   O2032     1.0  0.80116  0.33768  0.74631  1.0000
  O   O2033     1.0  0.78261  0.30709  0.72238  1.0000
  O   O2034     1.0  0.76919  0.31763  0.76717  1.0000
  C   C679      1.0  0.26442  0.50418  0.90758  1.0000
  O   O2035     1.0  0.26733  0.50313  0.87945  1.0000
  O   O2036     1.0  0.24261  0.49992  0.91905  1.0000
  O   O2037     1.0  0.28332  0.50950  0.92424  1.0000
  C   C680      1.0  0.34833  0.33224  0.90735  1.0000
  O   O2038     1.0  0.36797  0.34490  0.91406  1.0000
  O   O2039     1.0  0.33564  0.33728  0.88393  1.0000
  O   O2040     1.0  0.34138  0.31454  0.92406  1.0000
  C   C681      1.0  0.27353  0.47886  0.72786  1.0000
  O   O2041     1.0  0.28187  0.49950  0.71864  1.0000
  O   O2042     1.0  0.26654  0.46252  0.70924  1.0000
  O   O2043     1.0  0.27218  0.47456  0.75570  1.0000
  C   C682      1.0  0.26196  0.44955  0.48270  1.0000
  O   O2044     1.0  0.26061  0.46947  0.46787  1.0000
  O   O2045     1.0  0.28362  0.44134  0.49096  1.0000
  O   O2046     1.0  0.24165  0.43784  0.48926  1.0000
  C   C683      1.0  0.20196  0.32592  0.56804  1.0000
  O   O2047     1.0  0.22318  0.32349  0.55447  1.0000
  O   O2048     1.0  0.19261  0.34726  0.57222  1.0000
  O   O2049     1.0  0.19009  0.30701  0.57743  1.0000
  C   C684      1.0  0.22666  0.42675  0.59205  1.0000
  O   O2050     1.0  0.20726  0.41971  0.60690  1.0000
  O   O2051     1.0  0.24905  0.42356  0.60247  1.0000
  O   O2052     1.0  0.22367  0.43698  0.56678  1.0000
  C   C685      1.0  0.18842  0.36775  0.65718  1.0000
  O   O2053     1.0  0.18458  0.36886  0.62920  1.0000
  O   O2054     1.0  0.18250  0.38590  0.67372  1.0000
  O   O2055     1.0  0.19818  0.34849  0.66861  1.0000
  C   C686      1.0  0.34297  0.38318  0.95452  1.0000
  O   O2056     1.0  0.36366  0.39529  0.95727  1.0000
  O   O2057     1.0  0.34008  0.36850  0.93268  1.0000
  O   O2058     1.0  0.32517  0.38574  0.97361  1.0000
  C   C687      1.0  0.30813  0.42584  0.82469  1.0000
  O   O2059     1.0  0.28647  0.42634  0.83759  1.0000
  O   O2060     1.0  0.32471  0.40988  0.83225  1.0000
  O   O2061     1.0  0.31321  0.44130  0.80423  1.0000
  C   C688      1.0  0.35272  0.31201  0.70643  1.0000
  O   O2062     1.0  0.37548  0.31692  0.71450  1.0000
  O   O2063     1.0  0.33595  0.32897  0.70568  1.0000
  O   O2064     1.0  0.34672  0.29014  0.69910  1.0000
  C   C689      1.0  0.27304  0.38792  0.71203  1.0000
  O   O2065     1.0  0.25730  0.40567  0.70964  1.0000
  O   O2066     1.0  0.27819  0.37905  0.73758  1.0000
  O   O2067     1.0  0.28363  0.37904  0.68887  1.0000
  C   C690      1.0  0.32410  0.35277  0.79671  1.0000
  O   O2068     1.0  0.33446  0.36225  0.77376  1.0000
  O   O2069     1.0  0.32387  0.36454  0.82123  1.0000
  O   O2070     1.0  0.31396  0.33152  0.79514  1.0000
  C   C691      1.0  0.22979  0.99129  0.11538  1.0000
  O   O2071     1.0  0.24766  0.99305  0.13451  1.0000
  O   O2072     1.0  0.21049  0.97771  0.12068  1.0000
  O   O2073     1.0  0.23121  0.00311  0.09095  1.0000
  C   C692      1.0  0.29916  0.96227  0.17492  1.0000
  O   O2074     1.0  0.27998  0.97570  0.16857  1.0000
  O   O2075     1.0  0.29587  0.94166  0.18782  1.0000
  O   O2076     1.0  0.32163  0.96946  0.16837  1.0000
  C   C693      1.0  0.69951  0.65222  0.99000  1.0000
  O   O2077     1.0  0.71343  0.64392  0.96902  1.0000
  O   O2078     1.0  0.70962  0.66420  0.01133  1.0000
  O   O2079     1.0  0.67548  0.64854  0.98965  1.0000
  C   C694      1.0  0.12505  0.07816  0.75904  1.0000
  O   O2080     1.0  0.10699  0.07420  0.74065  1.0000
  O   O2081     1.0  0.12789  0.09944  0.77040  1.0000
  O   O2082     1.0  0.14027  0.06084  0.76607  1.0000
  C   C695      1.0  0.92797  0.72706  0.27998  1.0000
  O   O2083     1.0  0.92028  0.74606  0.29392  1.0000
  O   O2084     1.0  0.94305  0.72933  0.25789  1.0000
  O   O2085     1.0  0.92058  0.70579  0.28812  1.0000
  C   C696      1.0  0.78937  0.70653  0.14648  1.0000
  O   O2086     1.0  0.79354  0.68675  0.13210  1.0000
  O   O2087     1.0  0.76977  0.71951  0.14053  1.0000
  O   O2088     1.0  0.80480  0.71333  0.16681  1.0000
  C   C697      1.0  0.84683  0.68603  0.27055  1.0000
  O   O2089     1.0  0.84698  0.67275  0.29391  1.0000
  O   O2090     1.0  0.83357  0.70565  0.26982  1.0000
  O   O2091     1.0  0.85994  0.67969  0.24792  1.0000
  C   C698      1.0  0.77461  0.66127  0.23904  1.0000
  O   O2092     1.0  0.77815  0.65956  0.21105  1.0000
  O   O2093     1.0  0.76034  0.64581  0.25234  1.0000
  O   O2094     1.0  0.78534  0.67844  0.25372  1.0000
  C   C699      1.0  0.69270  0.64347  0.17343  1.0000
  O   O2095     1.0  0.69138  0.65058  0.20041  1.0000
  O   O2096     1.0  0.68474  0.65740  0.15261  1.0000
  O   O2097     1.0  0.70198  0.62243  0.16727  1.0000
  C   C700      1.0  0.98421  0.48505  0.16102  1.0000
  O   O2098     1.0  0.96731  0.48252  0.18120  1.0000
  O   O2099     1.0  0.00430  0.47184  0.16151  1.0000
  O   O2100     1.0  0.98102  0.50079  0.14035  1.0000
  C   C701      1.0  0.05680  0.49539  0.02985  1.0000
  O   O2101     1.0  0.04329  0.49244  0.00653  1.0000
  O   O2102     1.0  0.04640  0.49440  0.05547  1.0000
  O   O2103     1.0  0.08071  0.49933  0.02756  1.0000
  C   C702      1.0  0.17699  0.24633  0.82557  1.0000
  O   O2104     1.0  0.17032  0.26631  0.81298  1.0000
  O   O2105     1.0  0.16071  0.22922  0.82940  1.0000
  O   O2106     1.0  0.19994  0.24346  0.83432  1.0000
  C   C703      1.0  0.99126  0.55012  0.53668  1.0000
  O   O2107     1.0  0.00101  0.56644  0.55355  1.0000
  O   O2108     1.0  0.97216  0.53761  0.54559  1.0000
  O   O2109     1.0  0.00061  0.54631  0.51090  1.0000
  C   C704      1.0  0.45334  0.60443  0.37219  1.0000
  O   O2110     1.0  0.43750  0.62216  0.37377  1.0000
  O   O2111     1.0  0.47203  0.60553  0.35408  1.0000
  O   O2112     1.0  0.45048  0.58560  0.38872  1.0000
  C   C705      1.0  0.47914  0.54580  0.32152  1.0000
  O   O2113     1.0  0.46151  0.53193  0.33153  1.0000
  O   O2114     1.0  0.47604  0.55713  0.29696  1.0000
  O   O2115     1.0  0.49987  0.54833  0.33606  1.0000
  C   C706      1.0  0.58693  0.58423  0.34586  1.0000
  O   O2116     1.0  0.58449  0.56096  0.34464  1.0000
  O   O2117     1.0  0.56827  0.59808  0.33877  1.0000
  O   O2118     1.0  0.60803  0.59366  0.35418  1.0000
  C   C707      1.0  0.58317  0.57555  0.40472  1.0000
  O   O2119     1.0  0.60057  0.57505  0.42454  1.0000
  O   O2120     1.0  0.58083  0.59427  0.38791  1.0000
  O   O2121     1.0  0.56811  0.55733  0.40172  1.0000
  C   C708      1.0  0.48803  0.60713  0.45626  1.0000
  O   O2122     1.0  0.49173  0.60912  0.48419  1.0000
  O   O2123     1.0  0.46536  0.60590  0.44606  1.0000
  O   O2124     1.0  0.50700  0.60637  0.43852  1.0000
  C   C709      1.0  0.41366  0.55461  0.45311  1.0000
  O   O2125     1.0  0.39192  0.56442  0.44849  1.0000
  O   O2126     1.0  0.43343  0.56808  0.45574  1.0000
  O   O2127     1.0  0.41563  0.53133  0.45510  1.0000
  C   C710      1.0  0.55671  0.68624  0.37834  1.0000
  O   O2128     1.0  0.55713  0.70962  0.37684  1.0000
  O   O2129     1.0  0.54729  0.67374  0.35702  1.0000
  O   O2130     1.0  0.56571  0.67536  0.40116  1.0000
  C   C711      1.0  0.18081  0.07481  0.19486  1.0000
  O   O2131     1.0  0.15951  0.07770  0.18160  1.0000
  O   O2132     1.0  0.18455  0.05588  0.21097  1.0000
  O   O2133     1.0  0.19837  0.09085  0.19201  1.0000
  C   C712      1.0  0.37146  0.88001  0.88665  1.0000
  O   O2134     1.0  0.38244  0.89359  0.86741  1.0000
  O   O2135     1.0  0.38473  0.86617  0.90352  1.0000
  O   O2136     1.0  0.34721  0.88027  0.88902  1.0000
  C   C713      1.0  0.80338  0.92439  0.67786  1.0000
  O   O2137     1.0  0.80975  0.94271  0.66184  1.0000
  O   O2138     1.0  0.81834  0.90603  0.68024  1.0000
  O   O2139     1.0  0.78205  0.92443  0.69150  1.0000
  C   C714      1.0  0.71509  0.98494  0.66810  1.0000
  O   O2140     1.0  0.69251  0.99096  0.67573  1.0000
  O   O2141     1.0  0.72061  0.98228  0.64066  1.0000
  O   O2142     1.0  0.73215  0.98158  0.68791  1.0000
  C   C715      1.0  0.81061  0.78488  0.67517  1.0000
  O   O2143     1.0  0.80903  0.77846  0.70239  1.0000
  O   O2144     1.0  0.79247  0.77992  0.65724  1.0000
  O   O2145     1.0  0.83033  0.79626  0.66588  1.0000
  C   C716      1.0  0.76378  0.85715  0.54980  1.0000
  O   O2146     1.0  0.74814  0.84144  0.56030  1.0000
  O   O2147     1.0  0.78309  0.86376  0.56508  1.0000
  O   O2148     1.0  0.76011  0.86624  0.52401  1.0000
  C   C717      1.0  0.86358  0.80609  0.58284  1.0000
  O   O2149     1.0  0.85897  0.78380  0.57604  1.0000
  O   O2150     1.0  0.86879  0.82161  0.56249  1.0000
  O   O2151     1.0  0.86298  0.81286  0.60998  1.0000
  C   C718      1.0  0.92726  0.92717  0.58841  1.0000
  O   O2152     1.0  0.93811  0.94667  0.57911  1.0000
  O   O2153     1.0  0.92225  0.92466  0.61600  1.0000
  O   O2154     1.0  0.92142  0.91018  0.57012  1.0000
  C   C719      1.0  0.83608  0.87643  0.61519  1.0000
  O   O2155     1.0  0.83078  0.89380  0.63319  1.0000
  O   O2156     1.0  0.85724  0.86503  0.61745  1.0000
  O   O2157     1.0  0.82021  0.87047  0.59493  1.0000
  C   C720      1.0  0.48239  0.70313  0.51635  1.0000
  O   O2158     1.0  0.49963  0.69999  0.49670  1.0000
  O   O2159     1.0  0.48573  0.69507  0.54269  1.0000
  O   O2160     1.0  0.46181  0.71433  0.50966  1.0000
  C   C721      1.0  0.43345  0.63045  0.60543  1.0000
  O   O2161     1.0  0.41818  0.64442  0.59125  1.0000
  O   O2162     1.0  0.42778  0.60793  0.60954  1.0000
  O   O2163     1.0  0.45439  0.63899  0.61550  1.0000
  C   C722      1.0  0.17532  0.45855  0.90534  1.0000
  O   O2164     1.0  0.15751  0.44682  0.91844  1.0000
  O   O2165     1.0  0.18780  0.44839  0.88434  1.0000
  O   O2166     1.0  0.18064  0.48045  0.91324  1.0000
  C   C723      1.0  0.25487  0.37485  0.92682  1.0000
  O   O2167     1.0  0.25999  0.39060  0.90670  1.0000
  O   O2168     1.0  0.25207  0.35230  0.91993  1.0000
  O   O2169     1.0  0.25254  0.38165  0.95383  1.0000
  C   C724      1.0  0.19115  0.36668  0.04067  1.0000
  O   O2170     1.0  0.18444  0.35364  0.06289  1.0000
  O   O2171     1.0  0.19482  0.35663  0.01541  1.0000
  O   O2172     1.0  0.19419  0.38978  0.04371  1.0000
  C   C725      1.0  0.14566  0.49841  0.11108  1.0000
  O   O2173     1.0  0.14649  0.51874  0.12511  1.0000
  O   O2174     1.0  0.16334  0.48259  0.11463  1.0000
  O   O2175     1.0  0.12715  0.49390  0.09350  1.0000
  C   C726      1.0  0.06981  0.48298  0.83739  1.0000
  O   O2176     1.0  0.06638  0.50497  0.82852  1.0000
  O   O2177     1.0  0.09211  0.47362  0.83695  1.0000
  O   O2178     1.0  0.05094  0.47035  0.84670  1.0000
  C   C727      1.0  0.11087  0.48361  0.94436  1.0000
  O   O2179     1.0  0.08716  0.48340  0.95075  1.0000
  O   O2180     1.0  0.12736  0.47850  0.96428  1.0000
  O   O2181     1.0  0.11809  0.48893  0.91805  1.0000
  C   C728      1.0  0.15537  0.42157  0.04800  1.0000
  O   O2182     1.0  0.17557  0.43429  0.05159  1.0000
  O   O2183     1.0  0.15045  0.40386  0.06565  1.0000
  O   O2184     1.0  0.14010  0.42656  0.02676  1.0000
  C   C729      1.0  0.12757  0.36499  0.10124  1.0000
  O   O2185     1.0  0.13506  0.38413  0.11505  1.0000
  O   O2186     1.0  0.11779  0.36692  0.07537  1.0000
  O   O2187     1.0  0.12986  0.34391  0.11330  1.0000
  C   C730      1.0  0.85559  0.36129  0.71653  1.0000
  O   O2188     1.0  0.87794  0.37014  0.71982  1.0000
  O   O2189     1.0  0.85163  0.34444  0.69739  1.0000
  O   O2190     1.0  0.83720  0.36929  0.73238  1.0000
  C   C731      1.0  0.80618  0.41937  0.78001  1.0000
  O   O2191     1.0  0.81708  0.43583  0.79567  1.0000
  O   O2192     1.0  0.78198  0.41701  0.78085  1.0000
  O   O2193     1.0  0.81948  0.40526  0.76351  1.0000
  C   C732      1.0  0.12406  0.53584  0.62216  1.0000
  O   O2194     1.0  0.14602  0.52582  0.62361  1.0000
  O   O2195     1.0  0.10537  0.52667  0.63653  1.0000
  O   O2196     1.0  0.12079  0.55502  0.60634  1.0000
  C   C733      1.0  0.10607  0.44211  0.63364  1.0000
  O   O2197     1.0  0.09175  0.42378  0.63937  1.0000
  O   O2198     1.0  0.10466  0.45271  0.60840  1.0000
  O   O2199     1.0  0.12179  0.44985  0.65315  1.0000
  C   C734      1.0  0.92842  0.37304  0.79699  1.0000
  O   O2200     1.0  0.91845  0.37340  0.82286  1.0000
  O   O2201     1.0  0.93548  0.39303  0.78473  1.0000
  O   O2202     1.0  0.93133  0.35269  0.78338  1.0000
  C   C735      1.0  0.12555  0.40007  0.95797  1.0000
  O   O2203     1.0  0.11354  0.40080  0.98262  1.0000
  O   O2204     1.0  0.12559  0.38042  0.94254  1.0000
  O   O2205     1.0  0.13752  0.41898  0.94875  1.0000
  C   C736      1.0  0.07278  0.36870  0.92500  1.0000
  O   O2206     1.0  0.07511  0.34662  0.91596  1.0000
  O   O2207     1.0  0.05633  0.38285  0.91304  1.0000
  O   O2208     1.0  0.08690  0.37664  0.94600  1.0000
  C   C737      1.0  0.06624  0.49647  0.70485  1.0000
  O   O2209     1.0  0.07800  0.50817  0.68445  1.0000
  O   O2210     1.0  0.07534  0.47636  0.71478  1.0000
  O   O2211     1.0  0.04538  0.50488  0.71532  1.0000
  C   C738      1.0  0.99981  0.47473  0.83794  1.0000
  O   O2212     1.0  0.01235  0.49110  0.85200  1.0000
  O   O2213     1.0  0.00886  0.45310  0.83530  1.0000
  O   O2214     1.0  0.97822  0.47999  0.82651  1.0000
  C   C739      1.0  0.99936  0.42408  0.76040  1.0000
  O   O2215     1.0  0.01019  0.43861  0.74209  1.0000
  O   O2216     1.0  0.00680  0.40185  0.76246  1.0000
  O   O2217     1.0  0.98109  0.43177  0.77665  1.0000
  C   C740      1.0  0.90291  0.43047  0.85837  1.0000
  O   O2218     1.0  0.88764  0.42863  0.88034  1.0000
  O   O2219     1.0  0.92257  0.44417  0.86031  1.0000
  O   O2220     1.0  0.89852  0.41861  0.83446  1.0000
  C   C741      1.0  0.89133  0.53179  0.81737  1.0000
  O   O2221     1.0  0.91272  0.53988  0.82668  1.0000
  O   O2222     1.0  0.87685  0.51969  0.83482  1.0000
  O   O2223     1.0  0.88442  0.53580  0.79061  1.0000
  C   C742      1.0  0.87754  0.36435  0.92750  1.0000
  O   O2224     1.0  0.88413  0.38681  0.92523  1.0000
  O   O2225     1.0  0.89046  0.34773  0.91437  1.0000
  O   O2226     1.0  0.85803  0.35851  0.94290  1.0000
  C   C743      1.0  0.96590  0.45701  0.88159  1.0000
  O   O2227     1.0  0.96635  0.48023  0.87801  1.0000
  O   O2228     1.0  0.96948  0.44281  0.85942  1.0000
  O   O2229     1.0  0.96187  0.44798  0.90734  1.0000
  C   C744      1.0  0.03184  0.41177  0.94899  1.0000
  O   O2230     1.0  0.04417  0.39380  0.96015  1.0000
  O   O2231     1.0  0.01910  0.42607  0.96584  1.0000
  O   O2232     1.0  0.03225  0.41544  0.92098  1.0000
  C   C745      1.0  0.74138  0.06550  0.44016  1.0000
  O   O2233     1.0  0.76393  0.05757  0.44476  1.0000
  O   O2234     1.0  0.72468  0.05148  0.42845  1.0000
  O   O2235     1.0  0.73552  0.08745  0.44727  1.0000
  C   C746      1.0  0.83969  0.07411  0.44902  1.0000
  O   O2236     1.0  0.83651  0.06601  0.47538  1.0000
  O   O2237     1.0  0.84856  0.06003  0.42886  1.0000
  O   O2238     1.0  0.83399  0.09629  0.44283  1.0000
  C   C747      1.0  0.19874  0.46273  0.19075  1.0000
  O   O2239     1.0  0.18988  0.46029  0.21700  1.0000
  O   O2240     1.0  0.19918  0.48385  0.17851  1.0000
  O   O2241     1.0  0.20716  0.44406  0.17674  1.0000
  C   C748      1.0  0.96517  0.44117  0.56735  1.0000
  O   O2242     1.0  0.96706  0.46186  0.55426  1.0000
  O   O2243     1.0  0.94325  0.43276  0.57427  1.0000
  O   O2244     1.0  0.98520  0.42888  0.57351  1.0000
  C   C749      1.0  0.01382  0.47951  0.49798  1.0000
  O   O2245     1.0  0.02365  0.50083  0.50051  1.0000
  O   O2246     1.0  0.99115  0.47713  0.48808  1.0000
  O   O2247     1.0  0.02666  0.46057  0.50535  1.0000
  C   C750      1.0  0.20180  0.47668  0.31457  1.0000
  O   O2248     1.0  0.21950  0.48826  0.32806  1.0000
  O   O2249     1.0  0.18710  0.48805  0.29665  1.0000
  O   O2250     1.0  0.19880  0.45373  0.31900  1.0000
  C   C751      1.0  0.18955  0.43981  0.40301  1.0000
  O   O2251     1.0  0.20314  0.42648  0.38589  1.0000
  O   O2252     1.0  0.19558  0.44215  0.43034  1.0000
  O   O2253     1.0  0.16993  0.45080  0.39279  1.0000
  C   C752      1.0  0.17086  0.45918  0.45654  1.0000
  O   O2254     1.0  0.15103  0.46488  0.44162  1.0000
  O   O2255     1.0  0.16979  0.44206  0.47585  1.0000
  O   O2256     1.0  0.19176  0.47060  0.45215  1.0000
  C   C753      1.0  0.09129  0.40656  0.17852  1.0000
  O   O2257     1.0  0.09995  0.40578  0.15203  1.0000
  O   O2258     1.0  0.08288  0.38707  0.19081  1.0000
  O   O2259     1.0  0.09104  0.42683  0.19272  1.0000
  C   C754      1.0  0.97515  0.37983  0.47390  1.0000
  O   O2260     1.0  0.95413  0.38138  0.45974  1.0000
  O   O2261     1.0  0.99510  0.39031  0.46376  1.0000
  O   O2262     1.0  0.97622  0.36780  0.49821  1.0000
  C   C755      1.0  0.98202  0.43496  0.39927  1.0000
  O   O2263     1.0  0.97429  0.41753  0.41593  1.0000
  O   O2264     1.0  0.97340  0.43703  0.37286  1.0000
  O   O2265     1.0  0.99837  0.45032  0.40902  1.0000
  C   C756      1.0  0.00353  0.39138  0.35126  1.0000
  O   O2266     1.0  0.02503  0.38168  0.34505  1.0000
  O   O2267     1.0  0.00104  0.40429  0.37475  1.0000
  O   O2268     1.0  0.98452  0.38818  0.33398  1.0000
  C   C757      1.0  0.08641  0.40396  0.51283  1.0000
  O   O2269     1.0  0.09466  0.38257  0.51919  1.0000
  O   O2270     1.0  0.07802  0.40850  0.48678  1.0000
  O   O2271     1.0  0.08655  0.42081  0.53252  1.0000
  C   C758      1.0  0.09424  0.39975  0.37626  1.0000
  O   O2272     1.0  0.08501  0.40757  0.40074  1.0000
  O   O2273     1.0  0.07940  0.39179  0.35596  1.0000
  O   O2274     1.0  0.11831  0.39990  0.37209  1.0000
  C   C759      1.0  0.03409  0.43186  0.42360  1.0000
  O   O2275     1.0  0.02038  0.41253  0.42273  1.0000
  O   O2276     1.0  0.05017  0.43611  0.40294  1.0000
  O   O2277     1.0  0.03172  0.44694  0.44512  1.0000
  C   C760      1.0  0.07822  0.48571  0.20361  1.0000
  O   O2278     1.0  0.07161  0.50194  0.22255  1.0000
  O   O2279     1.0  0.07051  0.48726  0.17677  1.0000
  O   O2280     1.0  0.09254  0.46794  0.21151  1.0000
  C   C761      1.0  0.03041  0.42362  0.26898  1.0000
  O   O2281     1.0  0.01499  0.42121  0.29072  1.0000
  O   O2282     1.0  0.03004  0.44312  0.25329  1.0000
  O   O2283     1.0  0.04621  0.40653  0.26292  1.0000
  C   C762      1.0  0.88449  0.15715  0.54326  1.0000
  O   O2284     1.0  0.89264  0.13509  0.54375  1.0000
  O   O2285     1.0  0.89926  0.17451  0.53514  1.0000
  O   O2286     1.0  0.86157  0.16185  0.55089  1.0000
  C   C763      1.0  0.93764  0.20761  0.48514  1.0000
  O   O2287     1.0  0.93433  0.18542  0.49335  1.0000
  O   O2288     1.0  0.91845  0.22169  0.48148  1.0000
  O   O2289     1.0  0.96013  0.21571  0.48059  1.0000
  C   C764      1.0  0.87857  0.19449  0.34235  1.0000
  O   O2290     1.0  0.87946  0.21683  0.35077  1.0000
  O   O2291     1.0  0.86802  0.17838  0.35885  1.0000
  O   O2292     1.0  0.88823  0.18826  0.31743  1.0000
  C   C765      1.0  0.92237  0.14190  0.43751  1.0000
  O   O2293     1.0  0.91568  0.12147  0.42606  1.0000
  O   O2294     1.0  0.93305  0.15822  0.42143  1.0000
  O   O2295     1.0  0.91838  0.14601  0.46504  1.0000
  C   C766      1.0  0.86420  0.13257  0.43025  1.0000
  O   O2296     1.0  0.86677  0.11142  0.41847  1.0000
  O   O2297     1.0  0.84214  0.14233  0.43213  1.0000
  O   O2298     1.0  0.88369  0.14396  0.44015  1.0000
  C   C767      1.0  0.78238  0.19378  0.40194  1.0000
  O   O2299     1.0  0.76734  0.18579  0.42203  1.0000
  O   O2300     1.0  0.77794  0.21434  0.38939  1.0000
  O   O2301     1.0  0.80186  0.18121  0.39439  1.0000
  C   C768      1.0  0.88370  0.07854  0.47568  1.0000
  O   O2302     1.0  0.89158  0.07849  0.50251  1.0000
  O   O2303     1.0  0.88414  0.05879  0.46046  1.0000
  O   O2304     1.0  0.87538  0.09835  0.46407  1.0000
  C   C769      1.0  0.81915  0.16215  0.53088  1.0000
  O   O2305     1.0  0.84035  0.17146  0.52271  1.0000
  O   O2306     1.0  0.81869  0.14584  0.55122  1.0000
  O   O2307     1.0  0.79841  0.16916  0.51871  1.0000
  C   C770      1.0  0.07332  0.36793  0.54888  1.0000
  O   O2308     1.0  0.05532  0.36360  0.53053  1.0000
  O   O2309     1.0  0.08739  0.35041  0.55811  1.0000
  O   O2310     1.0  0.07725  0.38978  0.55799  1.0000
  C   C771      1.0  0.07378  0.25336  0.56826  1.0000
  O   O2311     1.0  0.06280  0.27089  0.55448  1.0000
  O   O2312     1.0  0.07038  0.23124  0.55983  1.0000
  O   O2313     1.0  0.08815  0.25794  0.59046  1.0000
  C   C772      1.0  0.98517  0.13169  0.82020  1.0000
  O   O2314     1.0  0.98079  0.11852  0.84309  1.0000
  O   O2315     1.0  0.97114  0.12956  0.79717  1.0000
  O   O2316     1.0  0.00358  0.14700  0.82034  1.0000
  C   C773      1.0  0.93788  0.14617  0.95788  1.0000
  O   O2317     1.0  0.93597  0.14377  0.92975  1.0000
  O   O2318     1.0  0.95555  0.15946  0.96888  1.0000
  O   O2319     1.0  0.92212  0.13528  0.97500  1.0000
  C   C774      1.0  0.91613  0.15405  0.77845  1.0000
  O   O2320     1.0  0.93917  0.15873  0.78560  1.0000
  O   O2321     1.0  0.89838  0.15642  0.79763  1.0000
  O   O2322     1.0  0.91084  0.14700  0.75211  1.0000
  C   C775      1.0  0.86995  0.19384  0.78123  1.0000
  O   O2323     1.0  0.86811  0.17767  0.76083  1.0000
  O   O2324     1.0  0.86919  0.18743  0.80850  1.0000
  O   O2325     1.0  0.87255  0.21642  0.77436  1.0000
  C   C776      1.0  0.84872  0.32787  0.77618  1.0000
  O   O2326     1.0  0.83949  0.34874  0.78322  1.0000
  O   O2327     1.0  0.84902  0.31049  0.79519  1.0000
  O   O2328     1.0  0.85765  0.32438  0.75014  1.0000
  C   C777      1.0  0.92500  0.31090  0.64234  1.0000
  O   O2329     1.0  0.92276  0.29869  0.66640  1.0000
  O   O2330     1.0  0.90731  0.31023  0.62289  1.0000
  O   O2331     1.0  0.94493  0.32378  0.63773  1.0000
  C   C778      1.0  0.88274  0.24024  0.73741  1.0000
  O   O2332     1.0  0.86946  0.22595  0.72112  1.0000
  O   O2333     1.0  0.87279  0.25972  0.74804  1.0000
  O   O2334     1.0  0.90596  0.23504  0.74307  1.0000
  C   C779      1.0  0.90863  0.19828  0.67469  1.0000
  O   O2335     1.0  0.88509  0.20040  0.68140  1.0000
  O   O2336     1.0  0.91936  0.21443  0.65840  1.0000
  O   O2337     1.0  0.92144  0.18001  0.68427  1.0000
  C   C780      1.0  0.82365  0.20155  0.68489  1.0000
  O   O2338     1.0  0.84413  0.19453  0.69762  1.0000
  O   O2339     1.0  0.80204  0.19605  0.69609  1.0000
  O   O2340     1.0  0.82478  0.21408  0.66096  1.0000
  C   C781      1.0  0.80574  0.24727  0.67932  1.0000
  O   O2341     1.0  0.79509  0.26608  0.69079  1.0000
  O   O2342     1.0  0.80687  0.24500  0.65112  1.0000
  O   O2343     1.0  0.81526  0.23073  0.69605  1.0000
  C   C782      1.0  0.71591  0.26247  0.58121  1.0000
  O   O2344     1.0  0.72056  0.28180  0.59628  1.0000
  O   O2345     1.0  0.69501  0.25090  0.58505  1.0000
  O   O2346     1.0  0.73216  0.25472  0.56230  1.0000
  C   C783      1.0  0.74973  0.21582  0.57297  1.0000
  O   O2347     1.0  0.72825  0.21760  0.55982  1.0000
  O   O2348     1.0  0.75124  0.20500  0.59806  1.0000
  O   O2349     1.0  0.76970  0.22486  0.56103  1.0000
  C   C784      1.0  0.93776  0.29693  0.78657  1.0000
  O   O2350     1.0  0.95820  0.30937  0.78972  1.0000
  O   O2351     1.0  0.92454  0.29108  0.80931  1.0000
  O   O2352     1.0  0.93054  0.29034  0.76069  1.0000
  C   C785      1.0  0.89094  0.32343  0.81146  1.0000
  O   O2353     1.0  0.87084  0.33462  0.81994  1.0000
  O   O2354     1.0  0.91169  0.32596  0.82595  1.0000
  O   O2355     1.0  0.89028  0.30971  0.78849  1.0000
  C   C786      1.0  0.07007  0.13530  0.73856  1.0000
  O   O2356     1.0  0.05094  0.12421  0.72729  1.0000
  O   O2357     1.0  0.07615  0.15666  0.72937  1.0000
  O   O2358     1.0  0.08311  0.12503  0.75902  1.0000
  C   C787      1.0  0.11340  0.19752  0.68312  1.0000
  O   O2359     1.0  0.11381  0.22034  0.68946  1.0000
  O   O2360     1.0  0.13332  0.18445  0.68695  1.0000
  O   O2361     1.0  0.09307  0.18777  0.67295  1.0000
  C   C788      1.0  0.91673  0.03665  0.62480  1.0000
  O   O2362     1.0  0.90980  0.04308  0.65085  1.0000
  O   O2363     1.0  0.93435  0.04845  0.61146  1.0000
  O   O2364     1.0  0.90604  0.01842  0.61209  1.0000
  C   C789      1.0  0.00458  0.13614  0.63045  1.0000
  O   O2365     1.0  0.02232  0.12018  0.62868  1.0000
  O   O2366     1.0  0.00971  0.15885  0.62704  1.0000
  O   O2367     1.0  0.98171  0.12939  0.63562  1.0000
  C   C790      1.0  0.13663  0.26645  0.61965  1.0000
  O   O2368     1.0  0.11742  0.27828  0.62952  1.0000
  O   O2369     1.0  0.13360  0.24521  0.60826  1.0000
  O   O2370     1.0  0.15887  0.27586  0.62117  1.0000
  C   C791      1.0  0.02760  0.22142  0.78465  1.0000
  O   O2371     1.0  0.00508  0.21455  0.77786  1.0000
  O   O2372     1.0  0.04549  0.21992  0.76551  1.0000
  O   O2373     1.0  0.03223  0.22979  0.81059  1.0000
  C   C792      1.0  0.95537  0.20415  0.71935  1.0000
  O   O2374     1.0  0.93628  0.21676  0.71063  1.0000
  O   O2375     1.0  0.95286  0.18900  0.74078  1.0000
  O   O2376     1.0  0.97696  0.20668  0.70664  1.0000
  C   C793      1.0  0.03430  0.96739  0.59991  1.0000
  O   O2377     1.0  0.02194  0.97803  0.57915  1.0000
  O   O2378     1.0  0.02762  0.97038  0.62694  1.0000
  O   O2379     1.0  0.05334  0.95376  0.59363  1.0000
  C   C794      1.0  0.05983  0.09040  0.60930  1.0000
  O   O2380     1.0  0.03778  0.08365  0.60052  1.0000
  O   O2381     1.0  0.07972  0.07970  0.59935  1.0000
  O   O2382     1.0  0.06199  0.10786  0.62803  1.0000
  C   C795      1.0  0.02491  0.32659  0.58293  1.0000
  O   O2383     1.0  0.04128  0.34171  0.57270  1.0000
  O   O2384     1.0  0.02716  0.31840  0.60937  1.0000
  O   O2385     1.0  0.00629  0.31966  0.56672  1.0000
  C   C796      1.0  0.01033  0.26409  0.65487  1.0000
  O   O2386     1.0  0.00691  0.25392  0.68011  1.0000
  O   O2387     1.0  0.00321  0.28621  0.65070  1.0000
  O   O2388     1.0  0.02087  0.25213  0.63380  1.0000
  C   C797      1.0  0.08288  0.16609  0.56419  1.0000
  O   O2389     1.0  0.06355  0.15251  0.55908  1.0000
  O   O2390     1.0  0.10528  0.15819  0.55860  1.0000
  O   O2391     1.0  0.07981  0.18757  0.57489  1.0000
  C   C798      1.0  0.08128  0.06281  0.56202  1.0000
  O   O2392     1.0  0.09800  0.04634  0.56718  1.0000
  O   O2393     1.0  0.08736  0.08208  0.54755  1.0000
  O   O2394     1.0  0.05848  0.06001  0.57133  1.0000
  C   C799      1.0  0.09208  0.06658  0.47307  1.0000
  O   O2395     1.0  0.11578  0.06855  0.46708  1.0000
  O   O2396     1.0  0.07544  0.07226  0.45355  1.0000
  O   O2397     1.0  0.08502  0.05893  0.49859  1.0000
  C   C800      1.0  0.09381  0.17971  0.50782  1.0000
  O   O2398     1.0  0.07157  0.17085  0.51195  1.0000
  O   O2399     1.0  0.10673  0.17338  0.48504  1.0000
  O   O2400     1.0  0.10314  0.19489  0.52647  1.0000
  C   C801      1.0  0.09370  0.16755  0.40172  1.0000
  O   O2401     1.0  0.08323  0.18543  0.41537  1.0000
  O   O2402     1.0  0.10345  0.17086  0.37604  1.0000
  O   O2403     1.0  0.09442  0.14636  0.41374  1.0000
  C   C802      1.0  0.01027  0.21595  0.44992  1.0000
  O   O2404     1.0  0.02913  0.22757  0.43883  1.0000
  O   O2405     1.0  0.99801  0.22502  0.47182  1.0000
  O   O2406     1.0  0.00367  0.19526  0.43911  1.0000
  C   C803      1.0  0.77480  0.52402  0.57299  1.0000
  O   O2407     1.0  0.75928  0.53581  0.58952  1.0000
  O   O2408     1.0  0.78427  0.53427  0.55000  1.0000
  O   O2409     1.0  0.78085  0.50198  0.57945  1.0000
  C   C804      1.0  0.81381  0.36064  0.46553  1.0000
  O   O2410     1.0  0.80934  0.33763  0.46472  1.0000
  O   O2411     1.0  0.80312  0.37400  0.48521  1.0000
  O   O2412     1.0  0.82896  0.37029  0.44666  1.0000
  C   C805      1.0  0.78495  0.44305  0.55091  1.0000
  O   O2413     1.0  0.76184  0.44960  0.54695  1.0000
  O   O2414     1.0  0.79463  0.42619  0.53479  1.0000
  O   O2415     1.0  0.79838  0.45336  0.57099  1.0000
  C   C806      1.0  0.73756  0.37411  0.46554  1.0000
  O   O2416     1.0  0.73527  0.39283  0.44871  1.0000
  O   O2417     1.0  0.71774  0.36360  0.47596  1.0000
  O   O2418     1.0  0.75968  0.36590  0.47195  1.0000
  C   C807      1.0  0.71068  0.98504  0.27380  1.0000
  O   O2419     1.0  0.72620  0.98292  0.25211  1.0000
  O   O2420     1.0  0.71874  0.99205  0.29918  1.0000
  O   O2421     1.0  0.68709  0.98016  0.27011  1.0000
  C   C808      1.0  0.67335  0.04039  0.39081  1.0000
  O   O2422     1.0  0.68096  0.03490  0.41692  1.0000
  O   O2423     1.0  0.68739  0.03563  0.36837  1.0000
  O   O2424     1.0  0.65170  0.05064  0.38714  1.0000
  C   C809      1.0  0.72684  0.96963  0.40446  1.0000
  O   O2425     1.0  0.74210  0.98549  0.39357  1.0000
  O   O2426     1.0  0.70290  0.97155  0.39992  1.0000
  O   O2427     1.0  0.73551  0.95185  0.41989  1.0000
  C   C810      1.0  0.79577  0.02651  0.49352  1.0000
  O   O2428     1.0  0.78439  0.02679  0.51859  1.0000
  O   O2429     1.0  0.81965  0.03086  0.49214  1.0000
  O   O2430     1.0  0.78327  0.02188  0.46984  1.0000
  C   C811      1.0  0.57418  0.50564  0.86687  1.0000
  O   O2431     1.0  0.58335  0.50304  0.89295  1.0000
  O   O2432     1.0  0.58834  0.50222  0.84418  1.0000
  O   O2433     1.0  0.55085  0.51167  0.86348  1.0000
  C   C812      1.0  0.35779  0.77335  0.41319  1.0000
  O   O2434     1.0  0.34433  0.79045  0.40181  1.0000
  O   O2435     1.0  0.38007  0.77804  0.42308  1.0000
  O   O2436     1.0  0.34897  0.75156  0.41467  1.0000
  C   C813      1.0  0.61136  0.82617  0.15521  1.0000
  O   O2437     1.0  0.59267  0.84113  0.15405  1.0000
  O   O2438     1.0  0.62960  0.82796  0.13656  1.0000
  O   O2439     1.0  0.61181  0.80942  0.17502  1.0000
  C   C814      1.0  0.69438  0.84353  0.18750  1.0000
  O   O2440     1.0  0.71257  0.83728  0.20475  1.0000
  O   O2441     1.0  0.67260  0.84898  0.19829  1.0000
  O   O2442     1.0  0.69797  0.84434  0.15946  1.0000
  C   C815      1.0  0.66166  0.82533  0.05217  1.0000
  O   O2443     1.0  0.65316  0.82518  0.02559  1.0000
  O   O2444     1.0  0.67812  0.80944  0.06028  1.0000
  O   O2445     1.0  0.65370  0.84137  0.07063  1.0000
  C   C816      1.0  0.89381  0.02424  0.24478  1.0000
  O   O2446     1.0  0.90486  0.01161  0.22466  1.0000
  O   O2447     1.0  0.87235  0.01729  0.25517  1.0000
  O   O2448     1.0  0.90422  0.04382  0.25451  1.0000
  C   C817      1.0  0.22569  0.32721  0.62089  1.0000
  O   O2449     1.0  0.23088  0.30491  0.61471  1.0000
  O   O2450     1.0  0.22376  0.33397  0.64795  1.0000
  O   O2451     1.0  0.22243  0.34275  0.60001  1.0000
  C   C818      1.0  0.26957  0.25130  0.69810  1.0000
  O   O2452     1.0  0.29262  0.25081  0.68903  1.0000
  O   O2453     1.0  0.25645  0.23159  0.69869  1.0000
  O   O2454     1.0  0.25964  0.27150  0.70658  1.0000
  C   C819      1.0  0.22939  0.21502  0.61414  1.0000
  O   O2455     1.0  0.21106  0.20323  0.62614  1.0000
  O   O2456     1.0  0.22474  0.23162  0.59489  1.0000
  O   O2457     1.0  0.25238  0.21021  0.62140  1.0000
  C   C820      1.0  0.27382  0.35902  0.55276  1.0000
  O   O2458     1.0  0.25635  0.35954  0.53303  1.0000
  O   O2459     1.0  0.28667  0.37835  0.55844  1.0000
  O   O2460     1.0  0.27844  0.33918  0.56682  1.0000
  C   C821      1.0  0.71463  0.59851  0.93932  1.0000
  O   O2461     1.0  0.71892  0.57896  0.92453  1.0000
  O   O2462     1.0  0.72314  0.61906  0.93002  1.0000
  O   O2463     1.0  0.70183  0.59751  0.96341  1.0000
  C   C822      1.0  0.62526  0.10941  0.11102  1.0000
  O   O2464     1.0  0.63378  0.12397  0.13089  1.0000
  O   O2465     1.0  0.60128  0.10621  0.10819  1.0000
  O   O2466     1.0  0.64072  0.09804  0.09398  1.0000
  C   C823      1.0  0.56357  0.07297  0.06019  1.0000
  O   O2467     1.0  0.54741  0.05547  0.05986  1.0000
  O   O2468     1.0  0.57821  0.07583  0.08258  1.0000
  O   O2469     1.0  0.56509  0.08761  0.03813  1.0000
  C   C824      1.0  0.52035  0.62848  0.82292  1.0000
  O   O2470     1.0  0.50138  0.63256  0.80585  1.0000
  O   O2471     1.0  0.51683  0.62545  0.85074  1.0000
  O   O2472     1.0  0.54284  0.62743  0.81216  1.0000
  C   C825      1.0  0.47625  0.69956  0.72932  1.0000
  O   O2473     1.0  0.47262  0.71171  0.75319  1.0000
  O   O2474     1.0  0.46412  0.67960  0.72487  1.0000
  O   O2475     1.0  0.49202  0.70737  0.70990  1.0000
  C   C826      1.0  0.41264  0.70952  0.80268  1.0000
  O   O2476     1.0  0.43620  0.71535  0.80214  1.0000
  O   O2477     1.0  0.40605  0.68703  0.80086  1.0000
  O   O2478     1.0  0.39566  0.72618  0.80504  1.0000
  C   C827      1.0  0.46127  0.68968  0.91333  1.0000
  O   O2479     1.0  0.43866  0.69805  0.91595  1.0000
  O   O2480     1.0  0.46784  0.67038  0.92744  1.0000
  O   O2481     1.0  0.47731  0.70061  0.89660  1.0000
  C   C828      1.0  0.62534  0.69867  0.98474  1.0000
  O   O2482     1.0  0.63973  0.71755  0.98439  1.0000
  O   O2483     1.0  0.60181  0.70084  0.99148  1.0000
  O   O2484     1.0  0.63447  0.67762  0.97835  1.0000
  C   C829      1.0  0.61998  0.80809  0.99812  1.0000
  O   O2485     1.0  0.63848  0.79459  0.98964  1.0000
  O   O2486     1.0  0.59939  0.79828  0.00744  1.0000
  O   O2487     1.0  0.62207  0.83141  0.99727  1.0000
  C   C830      1.0  0.56684  0.62963  0.21153  1.0000
  O   O2488     1.0  0.54787  0.61718  0.22093  1.0000
  O   O2489     1.0  0.58874  0.62687  0.22342  1.0000
  O   O2490     1.0  0.56390  0.64485  0.19025  1.0000
  C   C831      1.0  0.87926  0.64138  0.99636  1.0000
  O   O2491     1.0  0.86748  0.65256  0.01716  1.0000
  O   O2492     1.0  0.87193  0.62011  0.98815  1.0000
  O   O2493     1.0  0.89838  0.65148  0.98377  1.0000
  C   C832      1.0  0.89671  0.61569  0.91855  1.0000
  O   O2494     1.0  0.88990  0.63351  0.90196  1.0000
  O   O2495     1.0  0.89826  0.61867  0.94663  1.0000
  O   O2496     1.0  0.90197  0.59489  0.90707  1.0000
  C   C833      1.0  0.79746  0.26207  0.84603  1.0000
  O   O2497     1.0  0.80990  0.27419  0.82657  1.0000
  O   O2498     1.0  0.77890  0.27211  0.85976  1.0000
  O   O2499     1.0  0.80359  0.23991  0.85176  1.0000
  C   C834      1.0  0.15462  0.70757  0.13721  1.0000
  O   O2500     1.0  0.15906  0.72948  0.12865  1.0000
  O   O2501     1.0  0.15580  0.68990  0.11865  1.0000
  O   O2502     1.0  0.14899  0.70333  0.16432  1.0000
  C   C835      1.0  0.17450  0.77683  0.07240  1.0000
  O   O2503     1.0  0.19285  0.79207  0.07487  1.0000
  O   O2504     1.0  0.16309  0.76900  0.09559  1.0000
  O   O2505     1.0  0.16756  0.76942  0.04674  1.0000
  C   C836      1.0  0.93274  0.98585  0.91717  1.0000
  O   O2506     1.0  0.91064  0.99564  0.91652  1.0000
  O   O2507     1.0  0.93946  0.97290  0.93946  1.0000
  O   O2508     1.0  0.94812  0.98901  0.89552  1.0000
  C   C837      1.0  0.90218  0.96600  0.98614  1.0000
  O   O2509     1.0  0.90620  0.95173  0.96414  1.0000
  O   O2510     1.0  0.91778  0.98335  0.99178  1.0000
  O   O2511     1.0  0.88256  0.96292  0.00249  1.0000
  C   C838      1.0  0.18030  0.97638  0.36913  1.0000
  O   O2512     1.0  0.16596  0.99424  0.36157  1.0000
  O   O2513     1.0  0.19985  0.97106  0.35352  1.0000
  O   O2514     1.0  0.17509  0.96384  0.39230  1.0000
  C   C839      1.0  0.09080  0.96551  0.24061  1.0000
  O   O2515     1.0  0.08715  0.98797  0.24738  1.0000
  O   O2516     1.0  0.07188  0.95087  0.23860  1.0000
  O   O2517     1.0  0.11337  0.95768  0.23584  1.0000
  C   C840      1.0  0.07112  0.06300  0.22548  1.0000
  O   O2518     1.0  0.08130  0.04461  0.23842  1.0000
  O   O2519     1.0  0.05811  0.07843  0.24048  1.0000
  O   O2520     1.0  0.07395  0.06596  0.19754  1.0000
  C   C841      1.0  0.98220  0.07315  0.22794  1.0000
  O   O2521     1.0  0.98430  0.09024  0.24718  1.0000
  O   O2522     1.0  0.00159  0.06650  0.21282  1.0000
  O   O2523     1.0  0.96071  0.06271  0.22383  1.0000
  C   C842      1.0  0.12516  0.97398  0.19812  1.0000
  O   O2524     1.0  0.14285  0.95938  0.18995  1.0000
  O   O2525     1.0  0.13063  0.99326  0.21289  1.0000
  O   O2526     1.0  0.10200  0.96930  0.19152  1.0000
  C   C843      1.0  0.09799  0.09478  0.17570  1.0000
  O   O2527     1.0  0.11859  0.08237  0.17712  1.0000
  O   O2528     1.0  0.08412  0.09374  0.15243  1.0000
  O   O2529     1.0  0.09126  0.10823  0.19755  1.0000
  C   C844      1.0  0.02942  0.11261  0.95087  1.0000
  O   O2530     1.0  0.01924  0.09333  0.93999  1.0000
  O   O2531     1.0  0.01797  0.13320  0.94886  1.0000
  O   O2532     1.0  0.05105  0.11130  0.96376  1.0000
  C   C845      1.0  0.02333  0.90072  0.11997  1.0000
  O   O2533     1.0  0.00923  0.89701  0.14264  1.0000
  O   O2534     1.0  0.03918  0.88433  0.11168  1.0000
  O   O2535     1.0  0.02158  0.92083  0.10558  1.0000
  C   C846      1.0  0.98883  0.99371  0.20036  1.0000
  O   O2536     1.0  0.99243  0.97842  0.17929  1.0000
  O   O2537     1.0  0.99260  0.01656  0.19600  1.0000
  O   O2538     1.0  0.98147  0.98615  0.22579  1.0000
  C   C847      1.0  0.94015  0.93476  0.11837  1.0000
  O   O2539     1.0  0.94486  0.92727  0.09206  1.0000
  O   O2540     1.0  0.92657  0.95391  0.12236  1.0000
  O   O2541     1.0  0.94903  0.92311  0.14069  1.0000
  C   C848      1.0  0.07372  0.03518  0.90211  1.0000
  O   O2542     1.0  0.06117  0.05524  0.90219  1.0000
  O   O2543     1.0  0.07693  0.02344  0.87785  1.0000
  O   O2544     1.0  0.08306  0.02685  0.92628  1.0000
  C   C849      1.0  0.18052  0.99894  0.03952  1.0000
  O   O2545     1.0  0.18760  0.00336  0.01292  1.0000
  O   O2546     1.0  0.15699  0.00045  0.04650  1.0000
  O   O2547     1.0  0.19697  0.99301  0.05915  1.0000
  C   C850      1.0  0.99971  0.01951  0.13691  1.0000
  O   O2548     1.0  0.98982  0.01237  0.11248  1.0000
  O   O2549     1.0  0.99140  0.03884  0.14966  1.0000
  O   O2550     1.0  0.01791  0.00732  0.14859  1.0000
  C   C851      1.0  0.03565  0.96694  0.09674  1.0000
  O   O2551     1.0  0.03322  0.98900  0.10583  1.0000
  O   O2552     1.0  0.02211  0.95920  0.07512  1.0000
  O   O2553     1.0  0.05162  0.95262  0.10928  1.0000
  C   C852      1.0  0.07650  0.92611  0.07971  1.0000
  O   O2554     1.0  0.08466  0.93374  0.05464  1.0000
  O   O2555     1.0  0.08768  0.93266  0.10362  1.0000
  O   O2556     1.0  0.05716  0.91193  0.08087  1.0000
  C   C853      1.0  0.98939  0.98518  0.03055  1.0000
  O   O2557     1.0  0.97706  0.98983  0.00675  1.0000
  O   O2558     1.0  0.99305  0.96299  0.03852  1.0000
  O   O2559     1.0  0.99806  0.00273  0.04638  1.0000
  C   C854      1.0  0.88838  0.94218  0.07011  1.0000
  O   O2560     1.0  0.90276  0.92787  0.08505  1.0000
  O   O2561     1.0  0.89085  0.96539  0.07257  1.0000
  O   O2562     1.0  0.87153  0.93328  0.05271  1.0000
  C   C855      1.0  0.03737  0.96605  0.92172  1.0000
  O   O2563     1.0  0.03338  0.98208  0.90158  1.0000
  O   O2564     1.0  0.03887  0.94339  0.91481  1.0000
  O   O2565     1.0  0.03986  0.97268  0.94877  1.0000
  C   C856      1.0  0.00901  0.93436  0.98493  1.0000
  O   O2566     1.0  0.00047  0.91890  0.00376  1.0000
  O   O2567     1.0  0.99911  0.95570  0.98317  1.0000
  O   O2568     1.0  0.02746  0.92848  0.96786  1.0000
  C   C857      1.0  0.91338  0.86298  0.98441  1.0000
  O   O2569     1.0  0.89094  0.87154  0.98796  1.0000
  O   O2570     1.0  0.93088  0.87652  0.97349  1.0000
  O   O2571     1.0  0.91832  0.84088  0.99179  1.0000
  C   C858      1.0  0.97978  0.91730  0.83671  1.0000
  O   O2572     1.0  0.95563  0.91453  0.83583  1.0000
  O   O2573     1.0  0.99024  0.92686  0.85955  1.0000
  O   O2574     1.0  0.99347  0.91051  0.81475  1.0000
  C   C859      1.0  0.35627  0.21208  0.89454  1.0000
  O   O2575     1.0  0.36056  0.18904  0.89364  1.0000
  O   O2576     1.0  0.33893  0.22053  0.91160  1.0000
  O   O2577     1.0  0.36932  0.22666  0.87838  1.0000
  C   C860      1.0  0.82034  0.86182  0.76395  1.0000
  O   O2578     1.0  0.81678  0.84874  0.74080  1.0000
  O   O2579     1.0  0.81694  0.85257  0.78971  1.0000
  O   O2580     1.0  0.82730  0.88415  0.76135  1.0000
  C   C861      1.0  0.02375  0.78867  0.83554  1.0000
  O   O2581     1.0  0.01832  0.78926  0.86318  1.0000
  O   O2582     1.0  0.04442  0.79832  0.82620  1.0000
  O   O2583     1.0  0.00851  0.77843  0.81724  1.0000
  C   C862      1.0  0.95055  0.79514  0.75837  1.0000
  O   O2584     1.0  0.93262  0.81017  0.75235  1.0000
  O   O2585     1.0  0.94620  0.77210  0.75840  1.0000
  O   O2586     1.0  0.97283  0.80315  0.76436  1.0000
  C   C863      1.0  0.84451  0.76574  0.92523  1.0000
  O   O2587     1.0  0.82971  0.77424  0.90521  1.0000
  O   O2588     1.0  0.86440  0.77770  0.93279  1.0000
  O   O2589     1.0  0.83943  0.74528  0.93769  1.0000
  C   C864      1.0  0.89300  0.82420  0.86959  1.0000
  O   O2590     1.0  0.87792  0.82440  0.84733  1.0000
  O   O2591     1.0  0.89477  0.84306  0.88627  1.0000
  O   O2592     1.0  0.90631  0.80514  0.87517  1.0000
  C   C865      1.0  0.89545  0.75034  0.98981  1.0000
  O   O2593     1.0  0.89361  0.76312  0.96614  1.0000
  O   O2594     1.0  0.88716  0.75884  0.01441  1.0000
  O   O2595     1.0  0.90558  0.72907  0.98888  1.0000
  C   C866      1.0  0.78594  0.80644  0.00596  1.0000
  O   O2596     1.0  0.80190  0.82394  0.00896  1.0000
  O   O2597     1.0  0.76275  0.81112  0.99951  1.0000
  O   O2598     1.0  0.79317  0.78426  0.00940  1.0000
  C   C867      1.0  0.80322  0.77401  0.05539  1.0000
  O   O2599     1.0  0.78093  0.77393  0.06676  1.0000
  O   O2600     1.0  0.81116  0.75535  0.04096  1.0000
  O   O2601     1.0  0.81758  0.79274  0.05845  1.0000
  C   C868      1.0  0.36506  0.46044  0.37847  1.0000
  O   O2602     1.0  0.35723  0.46091  0.35162  1.0000
  O   O2603     1.0  0.34961  0.46493  0.39969  1.0000
  O   O2604     1.0  0.38835  0.45548  0.38410  1.0000
  C   C869      1.0  0.72963  0.37796  0.27822  1.0000
  O   O2605     1.0  0.72734  0.35467  0.27696  1.0000
  O   O2606     1.0  0.74776  0.38859  0.26436  1.0000
  O   O2607     1.0  0.71379  0.39061  0.29334  1.0000
  C   C870      1.0  0.82493  0.36468  0.31874  1.0000
  O   O2608     1.0  0.82652  0.35167  0.34225  1.0000
  O   O2609     1.0  0.80470  0.36407  0.30299  1.0000
  O   O2610     1.0  0.84357  0.37830  0.31098  1.0000
  C   C871      1.0  0.89672  0.33576  0.68591  1.0000
  O   O2611     1.0  0.88458  0.32295  0.66684  1.0000
  O   O2612     1.0  0.91962  0.34239  0.68066  1.0000
  O   O2613     1.0  0.88596  0.34194  0.71022  1.0000
  C   C872      1.0  0.98355  0.40340  0.70629  1.0000
  O   O2614     1.0  0.98466  0.41579  0.68226  1.0000
  O   O2615     1.0  0.97542  0.41343  0.73010  1.0000
  O   O2616     1.0  0.99057  0.38098  0.70651  1.0000
  C   C873      1.0  0.95941  0.34790  0.53626  1.0000
  O   O2617     1.0  0.94293  0.36380  0.52822  1.0000
  O   O2618     1.0  0.95301  0.32541  0.53886  1.0000
  O   O2619     1.0  0.98229  0.35449  0.54170  1.0000
  C   C874      1.0  0.01630  0.36122  0.66875  1.0000
  O   O2620     1.0  0.03602  0.36960  0.68191  1.0000
  O   O2621     1.0  0.01810  0.34225  0.65226  1.0000
  O   O2622     1.0  0.99479  0.37181  0.67207  1.0000
  C   C875      1.0  0.05469  0.36411  0.70893  1.0000
  O   O2623     1.0  0.03802  0.35852  0.72845  1.0000
  O   O2624     1.0  0.06970  0.38218  0.71333  1.0000
  O   O2625     1.0  0.05635  0.35163  0.68501  1.0000
  C   C876      1.0  0.04561  0.42652  0.62270  1.0000
  O   O2626     1.0  0.03104  0.44471  0.61715  1.0000
  O   O2627     1.0  0.06309  0.42059  0.60432  1.0000
  O   O2628     1.0  0.04270  0.41426  0.64663  1.0000
  C   C877      1.0  0.98285  0.23282  0.54567  1.0000
  O   O2629     1.0  0.96592  0.23794  0.56508  1.0000
  O   O2630     1.0  0.00614  0.23055  0.55342  1.0000
  O   O2631     1.0  0.97649  0.22996  0.51851  1.0000
  C   C878      1.0  0.58865  0.80611  0.50129  1.0000
  O   O2632     1.0  0.57891  0.82640  0.50977  1.0000
  O   O2633     1.0  0.61195  0.80526  0.49316  1.0000
  O   O2634     1.0  0.57509  0.78667  0.50094  1.0000
  C   C879      1.0  0.90511  0.88909  0.82820  1.0000
  O   O2635     1.0  0.88414  0.87878  0.82105  1.0000
  O   O2636     1.0  0.90724  0.89979  0.85330  1.0000
  O   O2637     1.0  0.92395  0.88870  0.81025  1.0000
  C   C880      1.0  0.94403  0.24829  0.95007  1.0000
  O   O2638     1.0  0.95012  0.22662  0.95815  1.0000
  O   O2639     1.0  0.95361  0.26681  0.96336  1.0000
  O   O2640     1.0  0.92836  0.25144  0.92871  1.0000
  C   C881      1.0  0.70819  0.52584  0.29730  1.0000
  O   O2641     1.0  0.70518  0.53480  0.27133  1.0000
  O   O2642     1.0  0.70917  0.54004  0.31982  1.0000
  O   O2643     1.0  0.71021  0.50268  0.30075  1.0000
  C   C882      1.0  0.68974  0.61892  0.37622  1.0000
  O   O2644     1.0  0.70567  0.63308  0.38908  1.0000
  O   O2645     1.0  0.69486  0.59618  0.37307  1.0000
  O   O2646     1.0  0.66869  0.62750  0.36651  1.0000
  C   C883      1.0  0.77737  0.86031  0.03930  1.0000
  O   O2647     1.0  0.76560  0.84984  0.01796  1.0000
  O   O2648     1.0  0.76588  0.87611  0.05538  1.0000
  O   O2649     1.0  0.80063  0.85498  0.04456  1.0000
  C   C884      1.0  0.88866  0.83075  0.05339  1.0000
  O   O2650     1.0  0.89647  0.84926  0.03859  1.0000
  O   O2651     1.0  0.88942  0.80937  0.04187  1.0000
  O   O2652     1.0  0.88010  0.83362  0.07971  1.0000
  C   C885      1.0  0.77468  0.09873  0.88712  1.0000
  O   O2653     1.0  0.78649  0.09836  0.91192  1.0000
  O   O2654     1.0  0.76889  0.11919  0.87510  1.0000
  O   O2655     1.0  0.76866  0.07864  0.87435  1.0000
  C   C886      1.0  0.55709  0.32509  0.32619  1.0000
  O   O2656     1.0  0.54969  0.33341  0.30112  1.0000
  O   O2657     1.0  0.54100  0.31551  0.34403  1.0000
  O   O2658     1.0  0.58058  0.32634  0.33342  1.0000
  C   C887      1.0  0.51453  0.28838  0.94025  1.0000
  O   O2659     1.0  0.51494  0.28171  0.91306  1.0000
  O   O2660     1.0  0.52794  0.30661  0.94876  1.0000
  O   O2661     1.0  0.50071  0.27682  0.95892  1.0000
  C   C888      1.0  0.47009  0.37574  0.89723  1.0000
  O   O2662     1.0  0.46065  0.37655  0.92336  1.0000
  O   O2663     1.0  0.45771  0.38468  0.87535  1.0000
  O   O2664     1.0  0.49191  0.36598  0.89299  1.0000
  C   C889      1.0  0.69518  0.84108  0.76582  1.0000
  O   O2665     1.0  0.70876  0.83519  0.74339  1.0000
  O   O2666     1.0  0.70376  0.83783  0.79207  1.0000
  O   O2667     1.0  0.67302  0.85022  0.76200  1.0000
  C   C890      1.0  0.30587  0.83943  0.94530  1.0000
  O   O2668     1.0  0.28888  0.83962  0.92500  1.0000
  O   O2669     1.0  0.32515  0.85363  0.94338  1.0000
  O   O2670     1.0  0.30359  0.82505  0.96752  1.0000
  C   C891      1.0  0.41518  0.82308  0.99887  1.0000
  O   O2671     1.0  0.42890  0.83824  0.01341  1.0000
  O   O2672     1.0  0.40455  0.82973  0.97466  1.0000
  O   O2673     1.0  0.41209  0.80127  0.00854  1.0000
  C   C892      1.0  0.29696  0.86147  0.83981  1.0000
  O   O2674     1.0  0.28767  0.88238  0.84658  1.0000
  O   O2675     1.0  0.28976  0.85063  0.81611  1.0000
  O   O2676     1.0  0.31345  0.85140  0.85673  1.0000
  C   C893      1.0  0.35455  0.76450  0.88954  1.0000
  O   O2677     1.0  0.36829  0.76122  0.91261  1.0000
  O   O2678     1.0  0.35707  0.75038  0.86711  1.0000
  O   O2679     1.0  0.33828  0.78191  0.88890  1.0000
  C   C894      1.0  0.41141  0.33563  0.68705  1.0000
  O   O2680     1.0  0.41582  0.34763  0.66324  1.0000
  O   O2681     1.0  0.42623  0.31819  0.69478  1.0000
  O   O2682     1.0  0.39218  0.34107  0.70313  1.0000
  C   C895      1.0  0.78798  0.29983  0.55226  1.0000
  O   O2683     1.0  0.80585  0.29056  0.53662  1.0000
  O   O2684     1.0  0.76985  0.28626  0.56163  1.0000
  O   O2685     1.0  0.78823  0.32267  0.55852  1.0000
  C   C896      1.0  0.48325  0.41849  0.49897  1.0000
  O   O2686     1.0  0.50425  0.42484  0.51106  1.0000
  O   O2687     1.0  0.46526  0.40976  0.51488  1.0000
  O   O2688     1.0  0.48024  0.42087  0.47097  1.0000
  C   C897      1.0  0.47386  0.27946  0.81343  1.0000
  O   O2689     1.0  0.45835  0.28771  0.79400  1.0000
  O   O2690     1.0  0.49334  0.29208  0.82086  1.0000
  O   O2691     1.0  0.46989  0.25859  0.82543  1.0000
  C   C898      1.0  0.43094  0.34956  0.78083  1.0000
  O   O2692     1.0  0.41592  0.33872  0.79888  1.0000
  O   O2693     1.0  0.44707  0.36516  0.79053  1.0000
  O   O2694     1.0  0.42983  0.34480  0.75309  1.0000
  C   C899      1.0  0.54323  0.38760  0.77776  1.0000
  O   O2695     1.0  0.52404  0.39285  0.76152  1.0000
  O   O2696     1.0  0.54550  0.36610  0.78868  1.0000
  O   O2697     1.0  0.56015  0.40385  0.78308  1.0000
  C   C900      1.0  0.50407  0.38078  0.83072  1.0000
  O   O2698     1.0  0.48129  0.37452  0.82423  1.0000
  O   O2699     1.0  0.51644  0.39506  0.81348  1.0000
  O   O2700     1.0  0.51448  0.37275  0.85444  1.0000
  C   C901      1.0  0.39016  0.38715  0.78292  1.0000
  O   O2701     1.0  0.40350  0.40591  0.78970  1.0000
  O   O2702     1.0  0.39663  0.37369  0.76097  1.0000
  O   O2703     1.0  0.37035  0.38184  0.79809  1.0000
  C   C902      1.0  0.51336  0.25930  0.78316  1.0000
  O   O2704     1.0  0.49103  0.26828  0.78027  1.0000
  O   O2705     1.0  0.52718  0.26544  0.80529  1.0000
  O   O2706     1.0  0.52187  0.24417  0.76392  1.0000
  C   C903      1.0  0.48814  0.28525  0.66632  1.0000
  O   O2707     1.0  0.47728  0.30292  0.67997  1.0000
  O   O2708     1.0  0.47471  0.26895  0.65330  1.0000
  O   O2709     1.0  0.51243  0.28389  0.66569  1.0000
  C   C904      1.0  0.68259  0.36463  0.55808  1.0000
  O   O2710     1.0  0.69494  0.37996  0.57397  1.0000
  O   O2711     1.0  0.67919  0.34274  0.56735  1.0000
  O   O2712     1.0  0.67364  0.37118  0.53292  1.0000
  C   C905      1.0  0.60503  0.31368  0.73321  1.0000
  O   O2713     1.0  0.61504  0.33365  0.72409  1.0000
  O   O2714     1.0  0.58151  0.31312  0.74043  1.0000
  O   O2715     1.0  0.61854  0.29427  0.73511  1.0000
  C   C906      1.0  0.61925  0.35743  0.67409  1.0000
  O   O2716     1.0  0.64094  0.34837  0.66742  1.0000
  O   O2717     1.0  0.61770  0.37468  0.69319  1.0000
  O   O2718     1.0  0.59910  0.34925  0.66166  1.0000
  C   C907      1.0  0.61199  0.32005  0.60663  1.0000
  O   O2719     1.0  0.59791  0.33767  0.59772  1.0000
  O   O2720     1.0  0.61238  0.29985  0.59230  1.0000
  O   O2721     1.0  0.62568  0.32263  0.62987  1.0000
  C   C908      1.0  0.58590  0.37220  0.49037  1.0000
  O   O2722     1.0  0.59845  0.37480  0.51447  1.0000
  O   O2723     1.0  0.58964  0.38688  0.46870  1.0000
  O   O2724     1.0  0.56961  0.35492  0.48794  1.0000
  C   C909      1.0  0.67756  0.38279  0.74913  1.0000
  O   O2725     1.0  0.68093  0.40121  0.76619  1.0000
  O   O2726     1.0  0.65502  0.37534  0.74339  1.0000
  O   O2727     1.0  0.69673  0.37181  0.73781  1.0000
  C   C910      1.0  0.70432  0.31460  0.66245  1.0000
  O   O2728     1.0  0.71822  0.29988  0.64748  1.0000
  O   O2729     1.0  0.68328  0.30717  0.67351  1.0000
  O   O2730     1.0  0.71146  0.33675  0.66636  1.0000
  C   C911      1.0  0.44929  0.46890  0.71404  1.0000
  O   O2731     1.0  0.44085  0.45112  0.72966  1.0000
  O   O2732     1.0  0.44431  0.46990  0.68630  1.0000
  O   O2733     1.0  0.46270  0.48568  0.72616  1.0000
  C   C912      1.0  0.42770  0.41898  0.76124  1.0000
  O   O2734     1.0  0.43216  0.43894  0.77513  1.0000
  O   O2735     1.0  0.44035  0.39966  0.76750  1.0000
  O   O2736     1.0  0.41059  0.41835  0.74109  1.0000
  C   C913      1.0  0.62196  0.60996  0.74020  1.0000
  O   O2737     1.0  0.60725  0.62528  0.72730  1.0000
  O   O2738     1.0  0.64530  0.61542  0.74473  1.0000
  O   O2739     1.0  0.61333  0.58919  0.74857  1.0000
  C   C914      1.0  0.59903  0.68948  0.79939  1.0000
  O   O2740     1.0  0.60051  0.67037  0.78310  1.0000
  O   O2741     1.0  0.60441  0.71049  0.78856  1.0000
  O   O2742     1.0  0.59218  0.68758  0.82651  1.0000
  C   C915      1.0  0.68127  0.72603  0.88379  1.0000
  O   O2743     1.0  0.68866  0.72198  0.85721  1.0000
  O   O2744     1.0  0.69585  0.73733  0.90191  1.0000
  O   O2745     1.0  0.65930  0.71877  0.89225  1.0000
  C   C916      1.0  0.71469  0.76882  0.87006  1.0000
  O   O2746     1.0  0.72679  0.75235  0.85565  1.0000
  O   O2747     1.0  0.72629  0.78804  0.87899  1.0000
  O   O2748     1.0  0.69099  0.76607  0.87554  1.0000
  C   C917      1.0  0.89216  0.76377  0.67966  1.0000
  O   O2749     1.0  0.88863  0.74401  0.69432  1.0000
  O   O2750     1.0  0.91464  0.77234  0.67653  1.0000
  O   O2751     1.0  0.87321  0.77495  0.66813  1.0000
  C   C918      1.0  0.87743  0.62689  0.65273  1.0000
  O   O2752     1.0  0.87321  0.64800  0.66398  1.0000
  O   O2753     1.0  0.86114  0.60971  0.65599  1.0000
  O   O2754     1.0  0.89794  0.62297  0.63822  1.0000
  C   C919      1.0  0.84353  0.62994  0.57289  1.0000
  O   O2755     1.0  0.83817  0.60727  0.56948  1.0000
  O   O2756     1.0  0.83544  0.64147  0.59571  1.0000
  O   O2757     1.0  0.85698  0.64108  0.55348  1.0000
  C   C920      1.0  0.71161  0.95817  0.82657  1.0000
  O   O2758     1.0  0.68778  0.95981  0.82118  1.0000
  O   O2759     1.0  0.71999  0.94100  0.84320  1.0000
  O   O2760     1.0  0.72706  0.97369  0.81533  1.0000
  C   C921      1.0  0.77579  0.00724  0.70352  1.0000
  O   O2761     1.0  0.77728  0.98485  0.71162  1.0000
  O   O2762     1.0  0.79256  0.02264  0.71215  1.0000
  O   O2763     1.0  0.75753  0.01423  0.68680  1.0000
  C   C922      1.0  0.75674  0.87960  0.73824  1.0000
  O   O2764     1.0  0.74380  0.88268  0.76197  1.0000
  O   O2765     1.0  0.74647  0.86954  0.71560  1.0000
  O   O2766     1.0  0.77995  0.88658  0.73715  1.0000
  C   C923      1.0  0.38461  0.70230  0.49199  1.0000
  O   O2767     1.0  0.40422  0.71285  0.48110  1.0000
  O   O2768     1.0  0.36285  0.70518  0.47977  1.0000
  O   O2769     1.0  0.38676  0.68887  0.51509  1.0000
  C   C924      1.0  0.48327  0.86810  0.49047  1.0000
  O   O2770     1.0  0.48006  0.86288  0.51787  1.0000
  O   O2771     1.0  0.46624  0.88018  0.47645  1.0000
  O   O2772     1.0  0.50351  0.86124  0.47709  1.0000
  C   C925      1.0  0.43435  0.76206  0.44505  1.0000
  O   O2773     1.0  0.43121  0.75150  0.47010  1.0000
  O   O2774     1.0  0.43662  0.74925  0.42145  1.0000
  O   O2775     1.0  0.43522  0.78543  0.44360  1.0000
  C   C926      1.0  0.01715  0.61274  0.69542  1.0000
  O   O2776     1.0  0.99911  0.61605  0.67682  1.0000
  O   O2777     1.0  0.03055  0.59322  0.69430  1.0000
  O   O2778     1.0  0.02180  0.62896  0.71515  1.0000
  C   C927      1.0  0.97007  0.65735  0.72352  1.0000
  O   O2779     1.0  0.95688  0.63924  0.73282  1.0000
  O   O2780     1.0  0.98319  0.65532  0.69976  1.0000
  O   O2781     1.0  0.97014  0.67749  0.73798  1.0000
  C   C928      1.0  0.87366  0.68352  0.72468  1.0000
  O   O2782     1.0  0.88523  0.70027  0.73921  1.0000
  O   O2783     1.0  0.88445  0.67342  0.70239  1.0000
  O   O2784     1.0  0.85130  0.67687  0.73244  1.0000
  C   C929      1.0  0.83226  0.61530  0.72148  1.0000
  O   O2785     1.0  0.82886  0.59310  0.72960  1.0000
  O   O2786     1.0  0.85063  0.62071  0.70407  1.0000
  O   O2787     1.0  0.81729  0.63209  0.73077  1.0000
  C   C930      1.0  0.52653  0.71593  0.45893  1.0000
  O   O2788     1.0  0.50533  0.72664  0.46395  1.0000
  O   O2789     1.0  0.53998  0.72215  0.43652  1.0000
  O   O2790     1.0  0.53428  0.69900  0.47631  1.0000
  C   C931      1.0  0.48537  0.76113  0.48593  1.0000
  O   O2791     1.0  0.47513  0.75570  0.46105  1.0000
  O   O2792     1.0  0.50234  0.77787  0.48724  1.0000
  O   O2793     1.0  0.47864  0.74982  0.50949  1.0000
  C   C932      1.0  0.76151  0.68403  0.69096  1.0000
  O   O2794     1.0  0.76351  0.69859  0.66887  1.0000
  O   O2795     1.0  0.76180  0.69250  0.71740  1.0000
  O   O2796     1.0  0.75922  0.66100  0.68661  1.0000
  C   C933      1.0  0.77096  0.55562  0.72735  1.0000
  O   O2797     1.0  0.75969  0.54419  0.74833  1.0000
  O   O2798     1.0  0.77033  0.57901  0.72641  1.0000
  O   O2799     1.0  0.78287  0.54365  0.70730  1.0000
  C   C934      1.0  0.60666  0.68515  0.48711  1.0000
  O   O2800     1.0  0.60636  0.66256  0.49455  1.0000
  O   O2801     1.0  0.61608  0.69157  0.46214  1.0000
  O   O2802     1.0  0.59754  0.70133  0.50464  1.0000
  C   C935      1.0  0.81280  0.55491  0.69320  1.0000
  O   O2803     1.0  0.80616  0.57662  0.68591  1.0000
  O   O2804     1.0  0.81348  0.53799  0.67361  1.0000
  O   O2805     1.0  0.81877  0.55012  0.72008  1.0000
  C   C936      1.0  0.48765  0.81565  0.57979  1.0000
  O   O2806     1.0  0.47502  0.81716  0.55561  1.0000
  O   O2807     1.0  0.50542  0.79980  0.58236  1.0000
  O   O2808     1.0  0.48250  0.82999  0.60139  1.0000
  C   C937      1.0  0.56709  0.72728  0.54890  1.0000
  O   O2809     1.0  0.56028  0.72077  0.57496  1.0000
  O   O2810     1.0  0.56068  0.71436  0.52645  1.0000
  O   O2811     1.0  0.58031  0.74671  0.54528  1.0000
  C   C938      1.0  0.67678  0.70661  0.57680  1.0000
  O   O2812     1.0  0.68813  0.68695  0.56891  1.0000
  O   O2813     1.0  0.65338  0.70988  0.57009  1.0000
  O   O2814     1.0  0.68883  0.72300  0.59140  1.0000
  C   C939      1.0  0.74147  0.61726  0.61101  1.0000
  O   O2815     1.0  0.74777  0.60239  0.63166  1.0000
  O   O2816     1.0  0.75853  0.62996  0.59788  1.0000
  O   O2817     1.0  0.71811  0.61943  0.60350  1.0000
  C   C940      1.0  0.54586  0.68994  0.28328  1.0000
  O   O2818     1.0  0.53034  0.69442  0.26212  1.0000
  O   O2819     1.0  0.56733  0.70092  0.28430  1.0000
  O   O2820     1.0  0.53990  0.67448  0.30342  1.0000
  C   C941      1.0  0.49074  0.75403  0.38547  1.0000
  O   O2821     1.0  0.49952  0.73223  0.38400  1.0000
  O   O2822     1.0  0.50393  0.77197  0.37567  1.0000
  O   O2823     1.0  0.46878  0.75790  0.39674  1.0000
  C   C942      1.0  0.73901  0.78827  0.74073  1.0000
  O   O2824     1.0  0.72187  0.79715  0.75776  1.0000
  O   O2825     1.0  0.76232  0.78843  0.74886  1.0000
  O   O2826     1.0  0.73283  0.77923  0.71557  1.0000
  C   C943      1.0  0.60361  0.78463  0.65500  1.0000
  O   O2827     1.0  0.62746  0.78864  0.65215  1.0000
  O   O2828     1.0  0.58973  0.78155  0.63200  1.0000
  O   O2829     1.0  0.59364  0.78369  0.68085  1.0000
  C   C944      1.0  0.72221  0.75007  0.68535  1.0000
  O   O2830     1.0  0.72676  0.72840  0.67601  1.0000
  O   O2831     1.0  0.70703  0.75336  0.70716  1.0000
  O   O2832     1.0  0.73284  0.76845  0.67289  1.0000
  C   C945      1.0  0.63489  0.75580  0.62049  1.0000
  O   O2833     1.0  0.62960  0.77592  0.60735  1.0000
  O   O2834     1.0  0.61915  0.74659  0.63902  1.0000
  O   O2835     1.0  0.65592  0.74489  0.61509  1.0000
  C   C946      1.0  0.57026  0.65133  0.53256  1.0000
  O   O2836     1.0  0.56130  0.65672  0.55811  1.0000
  O   O2837     1.0  0.56264  0.66294  0.50959  1.0000
  O   O2838     1.0  0.58684  0.63433  0.52998  1.0000
  C   C947      1.0  0.52991  0.66794  0.46490  1.0000
  O   O2839     1.0  0.52443  0.64561  0.47057  1.0000
  O   O2840     1.0  0.51226  0.68306  0.45812  1.0000
  O   O2841     1.0  0.55304  0.67515  0.46600  1.0000
  C   C948      1.0  0.64480  0.60231  0.55281  1.0000
  O   O2842     1.0  0.64316  0.58459  0.57125  1.0000
  O   O2843     1.0  0.66529  0.61487  0.55119  1.0000
  O   O2844     1.0  0.62595  0.60748  0.53600  1.0000
  C   C949      1.0  0.58928  0.54849  0.50900  1.0000
  O   O2845     1.0  0.57939  0.55294  0.48365  1.0000
  O   O2846     1.0  0.57789  0.55531  0.53267  1.0000
  O   O2847     1.0  0.61056  0.53722  0.51068  1.0000
  C   C950      1.0  0.78591  0.69743  0.62312  1.0000
  O   O2848     1.0  0.79508  0.67624  0.61753  1.0000
  O   O2849     1.0  0.79696  0.71142  0.64186  1.0000
  O   O2850     1.0  0.76569  0.70463  0.60997  1.0000
  C   C951      1.0  0.64406  0.65042  0.57526  1.0000
  O   O2851     1.0  0.63533  0.64822  0.54892  1.0000
  O   O2852     1.0  0.64372  0.63211  0.59293  1.0000
  O   O2853     1.0  0.65313  0.67093  0.58393  1.0000
  C   C952      1.0  0.73201  0.71817  0.60978  1.0000
  O   O2854     1.0  0.72410  0.69783  0.62038  1.0000
  O   O2855     1.0  0.72854  0.73803  0.62425  1.0000
  O   O2856     1.0  0.74339  0.71865  0.58472  1.0000
  C   C953      1.0  0.67771  0.60807  0.75890  1.0000
  O   O2857     1.0  0.68616  0.60234  0.73322  1.0000
  O   O2858     1.0  0.68017  0.62998  0.76849  1.0000
  O   O2859     1.0  0.66680  0.59189  0.77499  1.0000
  C   C954      1.0  0.60658  0.57779  0.83285  1.0000
  O   O2860     1.0  0.62285  0.57857  0.85392  1.0000
  O   O2861     1.0  0.58389  0.57047  0.83797  1.0000
  O   O2862     1.0  0.61300  0.58433  0.80666  1.0000
  C   C955      1.0  0.69851  0.51186  0.61566  1.0000
  O   O2863     1.0  0.67536  0.51375  0.60721  1.0000
  O   O2864     1.0  0.71629  0.50988  0.59644  1.0000
  O   O2865     1.0  0.70388  0.51195  0.64333  1.0000
  C   C956      1.0  0.71453  0.52100  0.83053  1.0000
  O   O2866     1.0  0.73176  0.53709  0.83514  1.0000
  O   O2867     1.0  0.69361  0.52713  0.81809  1.0000
  O   O2868     1.0  0.71822  0.49878  0.83836  1.0000
  C   C957      1.0  0.70244  0.53131  0.69797  1.0000
  O   O2869     1.0  0.69071  0.53986  0.67538  1.0000
  O   O2870     1.0  0.71391  0.51071  0.69625  1.0000
  O   O2871     1.0  0.70270  0.54337  0.72228  1.0000
  C   C958      1.0  0.68625  0.49475  0.88694  1.0000
  O   O2872     1.0  0.68303  0.50267  0.86051  1.0000
  O   O2873     1.0  0.66887  0.49789  0.90642  1.0000
  O   O2874     1.0  0.70685  0.48369  0.89389  1.0000
  C   C959      1.0  0.68262  0.59980  0.88858  1.0000
  O   O2875     1.0  0.70600  0.59409  0.88484  1.0000
  O   O2876     1.0  0.67677  0.61968  0.90193  1.0000
  O   O2877     1.0  0.66509  0.58563  0.87897  1.0000
  C   C960      1.0  0.68061  0.40406  0.84062  1.0000
  O   O2878     1.0  0.69456  0.39696  0.86221  1.0000
  O   O2879     1.0  0.68697  0.39896  0.81395  1.0000
  O   O2880     1.0  0.66031  0.41627  0.84570  1.0000
  C   C961      1.0  0.98899  0.63372  0.20860  1.0000
  O   O2881     1.0  0.97065  0.64207  0.22425  1.0000
  O   O2882     1.0  0.98472  0.62560  0.18246  1.0000
  O   O2883     1.0  0.01160  0.63349  0.21908  1.0000
  C   C962      1.0  0.87946  0.44781  0.34852  1.0000
  O   O2884     1.0  0.86127  0.43786  0.33405  1.0000
  O   O2885     1.0  0.88409  0.44112  0.37516  1.0000
  O   O2886     1.0  0.89302  0.46445  0.33635  1.0000
  C   C963      1.0  0.93213  0.48856  0.46298  1.0000
  O   O2887     1.0  0.92553  0.46718  0.47163  1.0000
  O   O2888     1.0  0.95563  0.49347  0.45862  1.0000
  O   O2889     1.0  0.91523  0.50503  0.45869  1.0000
  C   C964      1.0  0.89344  0.25620  0.22678  1.0000
  O   O2890     1.0  0.88594  0.25415  0.25365  1.0000
  O   O2891     1.0  0.91723  0.25626  0.22084  1.0000
  O   O2892     1.0  0.87715  0.25819  0.20585  1.0000
  C   C965      1.0  0.91363  0.25746  0.27963  1.0000
  O   O2893     1.0  0.91827  0.27574  0.26275  1.0000
  O   O2894     1.0  0.92106  0.23603  0.27218  1.0000
  O   O2895     1.0  0.90156  0.26062  0.30396  1.0000
  C   C966      1.0  0.53347  0.04448  0.31622  1.0000
  O   O2896     1.0  0.54822  0.02640  0.32165  1.0000
  O   O2897     1.0  0.52686  0.05894  0.33716  1.0000
  O   O2898     1.0  0.52533  0.04810  0.28985  1.0000
  C   C967      1.0  0.56603  0.99289  0.37176  1.0000
  O   O2899     1.0  0.57866  0.97347  0.36590  1.0000
  O   O2900     1.0  0.54170  0.99237  0.37169  1.0000
  O   O2901     1.0  0.57773  0.01283  0.37769  1.0000
  C   C968      1.0  0.60849  0.94095  0.34285  1.0000
  O   O2902     1.0  0.62647  0.95601  0.34856  1.0000
  O   O2903     1.0  0.58793  0.94858  0.33083  1.0000
  O   O2904     1.0  0.61108  0.91826  0.34916  1.0000
  C   C969      1.0  0.61074  0.03856  0.32898  1.0000
  O   O2905     1.0  0.62876  0.04352  0.34707  1.0000
  O   O2906     1.0  0.59397  0.02258  0.33588  1.0000
  O   O2907     1.0  0.60949  0.04958  0.30400  1.0000
  C   C970      1.0  0.47061  0.02921  0.41839  1.0000
  O   O2908     1.0  0.46412  0.04526  0.43761  1.0000
  O   O2909     1.0  0.45929  0.00849  0.41766  1.0000
  O   O2910     1.0  0.48842  0.03388  0.39990  1.0000
  C   C971      1.0  0.44840  0.07906  0.41475  1.0000
  O   O2911     1.0  0.46421  0.08998  0.43177  1.0000
  O   O2912     1.0  0.42878  0.06860  0.42574  1.0000
  O   O2913     1.0  0.45221  0.07860  0.38674  1.0000
  C   C972      1.0  0.52233  0.03633  0.44790  1.0000
  O   O2914     1.0  0.51302  0.05588  0.45911  1.0000
  O   O2915     1.0  0.51810  0.01563  0.46021  1.0000
  O   O2916     1.0  0.53587  0.03747  0.42437  1.0000
  C   C973      1.0  0.68003  0.26441  0.87142  1.0000
  O   O2917     1.0  0.67986  0.26612  0.84313  1.0000
  O   O2918     1.0  0.67152  0.24509  0.88399  1.0000
  O   O2919     1.0  0.68871  0.28202  0.88713  1.0000
  C   C974      1.0  0.55722  0.33984  0.87266  1.0000
  O   O2920     1.0  0.57679  0.34280  0.88913  1.0000
  O   O2921     1.0  0.53952  0.32520  0.88068  1.0000
  O   O2922     1.0  0.55535  0.35152  0.84817  1.0000
  C   C975      1.0  0.70229  0.27559  0.93358  1.0000
  O   O2923     1.0  0.68788  0.28213  0.95502  1.0000
  O   O2924     1.0  0.71448  0.29173  0.91873  1.0000
  O   O2925     1.0  0.70451  0.25292  0.92699  1.0000
  C   C976      1.0  0.67710  0.60701  0.06659  1.0000
  O   O2926     1.0  0.66825  0.61145  0.09246  1.0000
  O   O2927     1.0  0.69508  0.59147  0.06331  1.0000
  O   O2928     1.0  0.66797  0.61812  0.04400  1.0000
  C   C977      1.0  0.97638  0.64309  0.04896  1.0000
  O   O2929     1.0  0.96900  0.62992  0.02714  1.0000
  O   O2930     1.0  0.99216  0.66055  0.04467  1.0000
  O   O2931     1.0  0.96797  0.63880  0.07507  1.0000
  C   C978      1.0  0.76588  0.47008  0.83039  1.0000
  O   O2932     1.0  0.75169  0.46372  0.85210  1.0000
  O   O2933     1.0  0.78252  0.45519  0.82024  1.0000
  O   O2934     1.0  0.76344  0.49133  0.81882  1.0000
  C   C979      1.0  0.98186  0.41416  0.01483  1.0000
  O   O2935     1.0  0.97945  0.43261  0.03206  1.0000
  O   O2936     1.0  0.97929  0.41683  0.98681  1.0000
  O   O2937     1.0  0.98684  0.39304  0.02562  1.0000
  C   C980      1.0  0.85328  0.41892  0.26221  1.0000
  O   O2938     1.0  0.84812  0.44176  0.26386  1.0000
  O   O2939     1.0  0.86769  0.40898  0.28164  1.0000
  O   O2940     1.0  0.84404  0.40602  0.24113  1.0000
  C   C981      1.0  0.81983  0.54706  0.26756  1.0000
  O   O2941     1.0  0.80673  0.56390  0.25510  1.0000
  O   O2942     1.0  0.81071  0.52544  0.26999  1.0000
  O   O2943     1.0  0.84205  0.55184  0.27758  1.0000
  C   C982      1.0  0.72516  0.63376  0.11288  1.0000
  O   O2944     1.0  0.72049  0.62777  0.13976  1.0000
  O   O2945     1.0  0.74811  0.63421  0.10347  1.0000
  O   O2946     1.0  0.70687  0.63930  0.09541  1.0000
  C   C983      1.0  0.81509  0.55060  0.77933  1.0000
  O   O2947     1.0  0.81083  0.54207  0.80527  1.0000
  O   O2948     1.0  0.83675  0.55999  0.77319  1.0000
  O   O2949     1.0  0.79769  0.54975  0.75953  1.0000
  C   C984      1.0  0.91483  0.52158  0.99352  1.0000
  O   O2950     1.0  0.89952  0.50526  0.98376  1.0000
  O   O2951     1.0  0.90808  0.54407  0.99394  1.0000
  O   O2952     1.0  0.93689  0.51540  0.00287  1.0000
  C   C985      1.0  0.86049  0.47600  0.89160  1.0000
  O   O2953     1.0  0.87177  0.47820  0.91659  1.0000
  O   O2954     1.0  0.85970  0.49411  0.87365  1.0000
  O   O2955     1.0  0.85000  0.45569  0.88456  1.0000
  C   C986      1.0  0.84497  0.47569  0.98991  1.0000
  O   O2956     1.0  0.86208  0.49070  0.99863  1.0000
  O   O2957     1.0  0.82254  0.48341  0.98410  1.0000
  O   O2958     1.0  0.85028  0.45297  0.98700  1.0000
  C   C987      1.0  0.82820  0.59755  0.01191  1.0000
  O   O2959     1.0  0.84137  0.58776  0.99121  1.0000
  O   O2960     1.0  0.83677  0.61623  0.02578  1.0000
  O   O2961     1.0  0.80646  0.58866  0.01873  1.0000
  C   C988      1.0  0.77213  0.52418  0.06471  1.0000
  O   O2962     1.0  0.78090  0.50476  0.07681  1.0000
  O   O2963     1.0  0.78739  0.54010  0.05394  1.0000
  O   O2964     1.0  0.74810  0.52768  0.06339  1.0000
  C   C989      1.0  0.82172  0.52364  0.94723  1.0000
  O   O2965     1.0  0.83158  0.53916  0.92937  1.0000
  O   O2966     1.0  0.83515  0.51445  0.96810  1.0000
  O   O2967     1.0  0.79843  0.51731  0.94422  1.0000
  C   C990      1.0  0.99241  0.43254  0.22918  1.0000
  O   O2968     1.0  0.98473  0.43770  0.25536  1.0000
  O   O2969     1.0  0.98130  0.44195  0.20667  1.0000
  O   O2970     1.0  0.01120  0.41798  0.22551  1.0000
  C   C991      1.0  0.93460  0.38612  0.29245  1.0000
  O   O2971     1.0  0.95528  0.39018  0.27834  1.0000
  O   O2972     1.0  0.93446  0.37133  0.31444  1.0000
  O   O2973     1.0  0.91406  0.39685  0.28457  1.0000
  C   C992      1.0  0.98707  0.47900  0.35885  1.0000
  O   O2974     1.0  0.98653  0.46295  0.33821  1.0000
  O   O2975     1.0  0.97788  0.47397  0.38440  1.0000
  O   O2976     1.0  0.99680  0.50008  0.35395  1.0000
  C   C993      1.0  0.95365  0.49235  0.28247  1.0000
  O   O2977     1.0  0.97079  0.49812  0.30136  1.0000
  O   O2978     1.0  0.95953  0.47975  0.25956  1.0000
  O   O2979     1.0  0.93063  0.49917  0.28649  1.0000
  C   C994      1.0  0.88407  0.49337  0.18821  1.0000
  O   O2980     1.0  0.86379  0.50589  0.18427  1.0000
  O   O2981     1.0  0.90570  0.50408  0.18897  1.0000
  O   O2982     1.0  0.88272  0.47014  0.19138  1.0000
  C   C995      1.0  0.89205  0.60484  0.06230  1.0000
  O   O2983     1.0  0.88568  0.61842  0.04042  1.0000
  O   O2984     1.0  0.88134  0.60771  0.08753  1.0000
  O   O2985     1.0  0.90913  0.58840  0.05895  1.0000
  C   C996      1.0  0.93768  0.58409  0.06709  1.0000
  O   O2986     1.0  0.94204  0.57027  0.04476  1.0000
  O   O2987     1.0  0.93109  0.57468  0.09190  1.0000
  O   O2988     1.0  0.93991  0.60732  0.06460  1.0000
  C   C997      1.0  0.82880  0.53357  0.10760  1.0000
  O   O2989     1.0  0.81117  0.54909  0.10224  1.0000
  O   O2990     1.0  0.84688  0.53054  0.08897  1.0000
  O   O2991     1.0  0.82836  0.52108  0.13159  1.0000
  C   C998      1.0  0.84248  0.42522  0.09168  1.0000
  O   O2992     1.0  0.83329  0.40430  0.09858  1.0000
  O   O2993     1.0  0.83237  0.44475  0.10196  1.0000
  O   O2994     1.0  0.86179  0.42660  0.07450  1.0000
  C   C999      1.0  0.81491  0.46572  0.16983  1.0000
  O   O2995     1.0  0.80281  0.47833  0.15053  1.0000
  O   O2996     1.0  0.83825  0.47050  0.17539  1.0000
  O   O2997     1.0  0.80367  0.44833  0.18357  1.0000
  C   C1000     1.0  0.87436  0.43121  0.21207  1.0000
  O   O2998     1.0  0.88979  0.42752  0.19060  1.0000
  O   O2999     1.0  0.85464  0.44454  0.20818  1.0000
  O   O3000     1.0  0.87865  0.42157  0.23743  1.0000
  C   C1001     1.0  0.86725  0.53111  0.14798  1.0000
  O   O3001     1.0  0.84587  0.53923  0.15730  1.0000
  O   O3002     1.0  0.86791  0.51301  0.13000  1.0000
  O   O3003     1.0  0.88797  0.54109  0.15665  1.0000
  C   C1002     1.0  0.77091  0.36348  0.00880  1.0000
  O   O3004     1.0  0.78437  0.36426  0.03241  1.0000
  O   O3005     1.0  0.75173  0.37770  0.00593  1.0000
  O   O3006     1.0  0.77662  0.34848  0.98806  1.0000
  C   C1003     1.0  0.83663  0.32247  0.92786  1.0000
  O   O3007     1.0  0.81771  0.33503  0.93716  1.0000
  O   O3008     1.0  0.84771  0.32833  0.90362  1.0000
  O   O3009     1.0  0.84447  0.30405  0.94280  1.0000
  C   C1004     1.0  0.87623  0.32766  0.99345  1.0000
  O   O3010     1.0  0.88463  0.34881  0.98623  1.0000
  O   O3011     1.0  0.88955  0.30856  0.98812  1.0000
  O   O3012     1.0  0.85451  0.32560  0.00600  1.0000
  C   C1005     1.0  0.74253  0.38925  0.79174  1.0000
  O   O3013     1.0  0.75198  0.39868  0.81525  1.0000
  O   O3014     1.0  0.74583  0.36650  0.78622  1.0000
  O   O3015     1.0  0.72978  0.40256  0.77376  1.0000
  C   C1006     1.0  0.73761  0.41041  0.88711  1.0000
  O   O3016     1.0  0.72842  0.42301  0.86574  1.0000
  O   O3017     1.0  0.73268  0.41634  0.91394  1.0000
  O   O3018     1.0  0.75174  0.39189  0.88165  1.0000
  C   C1007     1.0  0.60295  0.14325  0.32801  1.0000
  O   O3019     1.0  0.61692  0.15662  0.34466  1.0000
  O   O3020     1.0  0.61277  0.13196  0.30595  1.0000
  O   O3021     1.0  0.57916  0.14117  0.33342  1.0000
  C   C1008     1.0  0.05043  0.98427  0.50992  1.0000
  O   O3022     1.0  0.05089  0.98462  0.53828  1.0000
  O   O3023     1.0  0.06169  0.00108  0.49518  1.0000
  O   O3024     1.0  0.03871  0.96710  0.49630  1.0000
  C   C1009     1.0  0.19822  0.04724  0.46023  1.0000
  O   O3025     1.0  0.17566  0.05595  0.45902  1.0000
  O   O3026     1.0  0.21389  0.05135  0.43911  1.0000
  O   O3027     1.0  0.20512  0.03442  0.48256  1.0000
  C   C1010     1.0  0.15452  0.96354  0.55816  1.0000
  O   O3028     1.0  0.15647  0.97620  0.53441  1.0000
  O   O3029     1.0  0.14256  0.97219  0.58053  1.0000
  O   O3030     1.0  0.16454  0.94223  0.55955  1.0000
  C   C1011     1.0  0.13250  0.91123  0.54699  1.0000
  O   O3031     1.0  0.11469  0.92707  0.54472  1.0000
  O   O3032     1.0  0.14263  0.90694  0.57225  1.0000
  O   O3033     1.0  0.14018  0.89968  0.52400  1.0000
  C   C1012     1.0  0.21823  0.93216  0.53138  1.0000
  O   O3034     1.0  0.19552  0.93849  0.52469  1.0000
  O   O3035     1.0  0.23646  0.94751  0.52872  1.0000
  O   O3036     1.0  0.22271  0.91048  0.54073  1.0000
  C   C1013     1.0  0.41941  0.63073  0.96456  1.0000
  O   O3037     1.0  0.42587  0.63959  0.98971  1.0000
  O   O3038     1.0  0.42139  0.64378  0.94113  1.0000
  O   O3039     1.0  0.41097  0.60882  0.96284  1.0000
  C   C1014     1.0  0.48121  0.47325  0.04312  1.0000
  O   O3040     1.0  0.49394  0.46695  0.06606  1.0000
  O   O3041     1.0  0.47319  0.49525  0.04050  1.0000
  O   O3042     1.0  0.47650  0.45755  0.02280  1.0000
  C   C1015     1.0  0.41841  0.58763  0.99734  1.0000
  O   O3043     1.0  0.44124  0.59574  0.99751  1.0000
  O   O3044     1.0  0.39997  0.60179  0.00427  1.0000
  O   O3045     1.0  0.41403  0.56536  0.99024  1.0000
  C   C1016     1.0  0.35785  0.53863  0.06496  1.0000
  O   O3046     1.0  0.35671  0.55262  0.08766  1.0000
  O   O3047     1.0  0.37091  0.54505  0.04233  1.0000
  O   O3048     1.0  0.34593  0.51822  0.06489  1.0000
  C   C1017     1.0  0.32763  0.54230  0.97499  1.0000
  O   O3049     1.0  0.33630  0.53585  0.94967  1.0000
  O   O3050     1.0  0.34293  0.54909  0.99545  1.0000
  O   O3051     1.0  0.30366  0.54196  0.97985  1.0000
  C   C1018     1.0  0.32939  0.49181  0.90571  1.0000
  O   O3052     1.0  0.31587  0.47244  0.90805  1.0000
  O   O3053     1.0  0.32119  0.51002  0.89066  1.0000
  O   O3054     1.0  0.35111  0.49298  0.91842  1.0000
  C   C1019     1.0  0.35506  0.43273  0.05766  1.0000
  O   O3055     1.0  0.33929  0.42371  0.03903  1.0000
  O   O3056     1.0  0.34847  0.43567  0.08473  1.0000
  O   O3057     1.0  0.37741  0.43881  0.04922  1.0000
  C   C1020     1.0  0.52954  0.35478  0.93738  1.0000
  O   O3058     1.0  0.50636  0.35552  0.94596  1.0000
  O   O3059     1.0  0.54664  0.34585  0.95441  1.0000
  O   O3060     1.0  0.53562  0.36297  0.91177  1.0000
  C   C1021     1.0  0.44450  0.50055  0.99681  1.0000
  O   O3061     1.0  0.42865  0.51768  0.99110  1.0000
  O   O3062     1.0  0.46729  0.50184  0.98698  1.0000
  O   O3063     1.0  0.43757  0.48213  0.01235  1.0000
  C   C1022     1.0  0.43104  0.45882  0.97251  1.0000
  O   O3064     1.0  0.45419  0.45454  0.97955  1.0000
  O   O3065     1.0  0.42026  0.44614  0.95225  1.0000
  O   O3066     1.0  0.41868  0.47578  0.98573  1.0000
  C   C1023     1.0  0.50824  0.53276  0.96853  1.0000
  O   O3067     1.0  0.51179  0.51242  0.95511  1.0000
  O   O3068     1.0  0.51910  0.53679  0.99344  1.0000
  O   O3069     1.0  0.49383  0.54907  0.95704  1.0000
  C   C1024     1.0  0.46507  0.47757  0.91494  1.0000
  O   O3070     1.0  0.48882  0.47328  0.91165  1.0000
  O   O3071     1.0  0.45602  0.48155  0.94082  1.0000
  O   O3072     1.0  0.45036  0.47788  0.89234  1.0000
  C   C1025     1.0  0.33521  0.56538  0.71754  1.0000
  O   O3073     1.0  0.31625  0.57413  0.70327  1.0000
  O   O3074     1.0  0.33151  0.55264  0.74094  1.0000
  O   O3075     1.0  0.35787  0.56937  0.70841  1.0000
  C   C1026     1.0  0.40054  0.48760  0.82785  1.0000
  O   O3076     1.0  0.39300  0.46551  0.82447  1.0000
  O   O3077     1.0  0.38448  0.50518  0.82701  1.0000
  O   O3078     1.0  0.42414  0.49211  0.83206  1.0000
  C   C1027     1.0  0.87180  0.51216  0.73599  1.0000
  O   O3079     1.0  0.85891  0.52990  0.74682  1.0000
  O   O3080     1.0  0.86928  0.50637  0.70866  1.0000
  O   O3081     1.0  0.88721  0.50021  0.75249  1.0000
  C   C1028     1.0  0.72166  0.93700  0.76664  1.0000
  O   O3082     1.0  0.70502  0.92891  0.78487  1.0000
  O   O3083     1.0  0.74068  0.92365  0.75947  1.0000
  O   O3084     1.0  0.71927  0.95844  0.75557  1.0000
  C   C1029     1.0  0.61550  0.97521  0.78184  1.0000
  O   O3085     1.0  0.60265  0.98613  0.80196  1.0000
  O   O3086     1.0  0.62539  0.98751  0.76064  1.0000
  O   O3087     1.0  0.61846  0.95199  0.78292  1.0000
  C   C1030     1.0  0.67202  0.03680  0.54043  1.0000
  O   O3088     1.0  0.67307  0.01413  0.53344  1.0000
  O   O3089     1.0  0.66788  0.05292  0.52043  1.0000
  O   O3090     1.0  0.67511  0.04335  0.56742  1.0000
  C   C1031     1.0  0.72624  0.06324  0.60938  1.0000
  O   O3091     1.0  0.70865  0.04728  0.60621  1.0000
  O   O3092     1.0  0.72048  0.08562  0.61434  1.0000
  O   O3093     1.0  0.74959  0.05683  0.60759  1.0000
  C   C1032     1.0  0.81073  0.88906  0.00998  1.0000
  O   O3094     1.0  0.80973  0.87400  0.98830  1.0000
  O   O3095     1.0  0.79019  0.89766  0.02106  1.0000
  O   O3096     1.0  0.83228  0.89552  0.02059  1.0000
  C   C1033     1.0  0.29868  0.68732  0.37635  1.0000
  O   O3097     1.0  0.32207  0.68211  0.38098  1.0000
  O   O3098     1.0  0.28133  0.67743  0.39223  1.0000
  O   O3099     1.0  0.29264  0.70242  0.35584  1.0000
  C   C1034     1.0  0.45910  0.55231  0.63013  1.0000
  O   O3100     1.0  0.44532  0.57161  0.63016  1.0000
  O   O3101     1.0  0.44868  0.53121  0.63199  1.0000
  O   O3102     1.0  0.48331  0.55412  0.62824  1.0000
  C   C1035     1.0  0.42519  0.60683  0.73565  1.0000
  O   O3103     1.0  0.42198  0.59099  0.71510  1.0000
  O   O3104     1.0  0.40604  0.61823  0.74638  1.0000
  O   O3105     1.0  0.44755  0.61126  0.74547  1.0000
  C   C1036     1.0  0.41593  0.48725  0.66856  1.0000
  O   O3106     1.0  0.41261  0.47518  0.64456  1.0000
  O   O3107     1.0  0.42859  0.50724  0.66819  1.0000
  O   O3108     1.0  0.40659  0.47932  0.69293  1.0000
  C   C1037     1.0  0.25540  0.50825  0.52757  1.0000
  O   O3109     1.0  0.23689  0.50559  0.54570  1.0000
  O   O3110     1.0  0.27073  0.52627  0.53052  1.0000
  O   O3111     1.0  0.25858  0.49289  0.50649  1.0000
  C   C1038     1.0  0.39670  0.60868  0.66375  1.0000
  O   O3112     1.0  0.38913  0.60856  0.69071  1.0000
  O   O3113     1.0  0.39563  0.62842  0.64855  1.0000
  O   O3114     1.0  0.40534  0.58906  0.65200  1.0000
  C   C1039     1.0  0.21662  0.66314  0.11009  1.0000
  O   O3115     1.0  0.19492  0.66861  0.12108  1.0000
  O   O3116     1.0  0.23691  0.66730  0.12490  1.0000
  O   O3117     1.0  0.21803  0.65351  0.08429  1.0000
  C   C1040     1.0  0.40635  0.57446  0.37970  1.0000
  O   O3118     1.0  0.38264  0.56984  0.37661  1.0000
  O   O3119     1.0  0.42144  0.57219  0.35762  1.0000
  O   O3120     1.0  0.41497  0.58136  0.40488  1.0000
  C   C1041     1.0  0.30133  0.64549  0.34688  1.0000
  O   O3121     1.0  0.31443  0.66192  0.33366  1.0000
  O   O3122     1.0  0.30374  0.64237  0.37485  1.0000
  O   O3123     1.0  0.28582  0.63218  0.33213  1.0000
  C   C1042     1.0  0.29245  0.58419  0.38135  1.0000
  O   O3124     1.0  0.30623  0.58441  0.35797  1.0000
  O   O3125     1.0  0.28196  0.56427  0.38988  1.0000
  O   O3126     1.0  0.28917  0.60389  0.39620  1.0000
  C   C1043     1.0  0.30224  0.53477  0.50900  1.0000
  O   O3127     1.0  0.28822  0.54850  0.49285  1.0000
  O   O3128     1.0  0.30977  0.51404  0.49916  1.0000
  O   O3129     1.0  0.30873  0.54177  0.53499  1.0000
  C   C1044     1.0  0.26301  0.61684  0.21216  1.0000
  O   O3130     1.0  0.25600  0.59666  0.22401  1.0000
  O   O3131     1.0  0.28282  0.62789  0.22176  1.0000
  O   O3132     1.0  0.25021  0.62596  0.19072  1.0000
  C   C1045     1.0  0.37972  0.57053  0.51996  1.0000
  O   O3133     1.0  0.38193  0.57138  0.49173  1.0000
  O   O3134     1.0  0.35774  0.56813  0.53177  1.0000
  O   O3135     1.0  0.39949  0.57208  0.53638  1.0000
  C   C1046     1.0  0.31678  0.58984  0.59380  1.0000
  O   O3136     1.0  0.33265  0.57258  0.58882  1.0000
  O   O3137     1.0  0.31872  0.61013  0.57982  1.0000
  O   O3138     1.0  0.29896  0.58682  0.61277  1.0000
  C   C1047     1.0  0.28795  0.58881  0.54267  1.0000
  O   O3139     1.0  0.27276  0.57071  0.53946  1.0000
  O   O3140     1.0  0.27941  0.61072  0.54159  1.0000
  O   O3141     1.0  0.31168  0.58500  0.54696  1.0000
  C   C1048     1.0  0.23975  0.64809  0.42023  1.0000
  O   O3142     1.0  0.26230  0.63933  0.41920  1.0000
  O   O3143     1.0  0.22065  0.63369  0.42237  1.0000
  O   O3144     1.0  0.23630  0.67125  0.41912  1.0000
  C   C1049     1.0  0.30910  0.64244  0.44823  1.0000
  O   O3145     1.0  0.30667  0.61918  0.44668  1.0000
  O   O3146     1.0  0.30651  0.65553  0.42491  1.0000
  O   O3147     1.0  0.31412  0.65261  0.47310  1.0000
  C   C1050     1.0  0.02266  0.54970  0.91430  1.0000
  O   O3148     1.0  0.02499  0.57127  0.92499  1.0000
  O   O3149     1.0  0.03840  0.53292  0.92170  1.0000
  O   O3150     1.0  0.00459  0.54491  0.89621  1.0000
  C   C1051     1.0  0.97750  0.51178  0.22604  1.0000
  O   O3151     1.0  0.97530  0.52514  0.20289  1.0000
  O   O3152     1.0  0.99055  0.49204  0.22501  1.0000
  O   O3153     1.0  0.96665  0.51816  0.25022  1.0000
  C   C1052     1.0  0.11467  0.77393  0.98672  1.0000
  O   O3154     1.0  0.12500  0.75814  0.00386  1.0000
  O   O3155     1.0  0.10640  0.79413  0.99733  1.0000
  O   O3156     1.0  0.11261  0.76952  0.95897  1.0000
  C   C1053     1.0  0.12188  0.66794  0.01858  1.0000
  O   O3157     1.0  0.11231  0.66638  0.99257  1.0000
  O   O3158     1.0  0.13084  0.64885  0.03125  1.0000
  O   O3159     1.0  0.12250  0.68860  0.03192  1.0000
  C   C1054     1.0  0.09178  0.70240  0.04943  1.0000
  O   O3160     1.0  0.10043  0.68063  0.04676  1.0000
  O   O3161     1.0  0.10642  0.72074  0.04499  1.0000
  O   O3162     1.0  0.06850  0.70583  0.05654  1.0000
  C   C1055     1.0  0.12567  0.59461  0.93700  1.0000
  O   O3163     1.0  0.10328  0.58645  0.93191  1.0000
  O   O3164     1.0  0.14502  0.58086  0.93274  1.0000
  O   O3165     1.0  0.12871  0.61652  0.94635  1.0000
  C   C1056     1.0  0.10473  0.54963  0.30217  1.0000
  O   O3166     1.0  0.12094  0.56474  0.31278  1.0000
  O   O3167     1.0  0.09846  0.53061  0.31701  1.0000
  O   O3168     1.0  0.09479  0.55354  0.27671  1.0000
  C   C1057     1.0  0.01514  0.52770  0.31618  1.0000
  O   O3169     1.0  0.99535  0.54079  0.31161  1.0000
  O   O3170     1.0  0.03181  0.53460  0.33507  1.0000
  O   O3171     1.0  0.01826  0.50771  0.30187  1.0000
  C   C1058     1.0  0.09302  0.49800  0.38666  1.0000
  O   O3172     1.0  0.10496  0.51017  0.36683  1.0000
  O   O3173     1.0  0.08694  0.50822  0.41118  1.0000
  O   O3174     1.0  0.08716  0.47561  0.38197  1.0000
  C   C1059     1.0  0.22569  0.55904  0.10490  1.0000
  O   O3175     1.0  0.22062  0.53628  0.10797  1.0000
  O   O3176     1.0  0.24705  0.56750  0.11382  1.0000
  O   O3177     1.0  0.20940  0.57334  0.09291  1.0000
  C   C1060     1.0  0.17156  0.55148  0.25621  1.0000
  O   O3178     1.0  0.16549  0.54921  0.22888  1.0000
  O   O3179     1.0  0.16670  0.57142  0.26996  1.0000
  O   O3180     1.0  0.18248  0.53381  0.26979  1.0000
  C   C1061     1.0  0.21202  0.56211  0.16731  1.0000
  O   O3181     1.0  0.23434  0.56508  0.17803  1.0000
  O   O3182     1.0  0.20804  0.56553  0.13964  1.0000
  O   O3183     1.0  0.19368  0.55572  0.18427  1.0000
  C   C1062     1.0  0.19411  0.58903  0.97514  1.0000
  O   O3184     1.0  0.20630  0.60696  0.96371  1.0000
  O   O3185     1.0  0.17142  0.58432  0.96662  1.0000
  O   O3186     1.0  0.20461  0.57580  0.99509  1.0000
  C   C1063     1.0  0.05791  0.58783  0.06715  1.0000
  O   O3187     1.0  0.07521  0.60429  0.06756  1.0000
  O   O3188     1.0  0.04861  0.57982  0.09150  1.0000
  O   O3189     1.0  0.04991  0.57938  0.04239  1.0000
  C   C1064     1.0  0.08942  0.53104  0.97565  1.0000
  O   O3190     1.0  0.11133  0.53614  0.98633  1.0000
  O   O3191     1.0  0.07074  0.52676  0.99307  1.0000
  O   O3192     1.0  0.08619  0.53022  0.94755  1.0000
  C   C1065     1.0  0.11748  0.15853  0.62028  1.0000
  O   O3193     1.0  0.13410  0.16823  0.60321  1.0000
  O   O3194     1.0  0.11906  0.16143  0.64837  1.0000
  O   O3195     1.0  0.09928  0.14593  0.60926  1.0000
  C   C1066     1.0  0.21847  0.66246  0.60434  1.0000
  O   O3196     1.0  0.22489  0.68256  0.61681  1.0000
  O   O3197     1.0  0.20145  0.64886  0.61616  1.0000
  O   O3198     1.0  0.22907  0.65595  0.58005  1.0000
  C   C1067     1.0  0.24811  0.92031  0.23927  1.0000
  O   O3199     1.0  0.25955  0.91461  0.21521  1.0000
  O   O3200     1.0  0.22633  0.91105  0.24513  1.0000
  O   O3201     1.0  0.25844  0.93526  0.25747  1.0000
  C   C1068     1.0  0.03205  0.75183  0.76633  1.0000
  O   O3202     1.0  0.03552  0.77164  0.78090  1.0000
  O   O3203     1.0  0.02615  0.75273  0.73883  1.0000
  O   O3204     1.0  0.03449  0.73112  0.77926  1.0000
  C   C1069     1.0  0.98348  0.74722  0.88386  1.0000
  O   O3205     1.0  0.00474  0.73729  0.89063  1.0000
  O   O3206     1.0  0.98284  0.76497  0.86538  1.0000
  O   O3207     1.0  0.96286  0.73939  0.89557  1.0000
  C   C1070     1.0  0.26616  0.28945  0.86892  1.0000
  O   O3208     1.0  0.25435  0.30992  0.86861  1.0000
  O   O3209     1.0  0.28987  0.28866  0.86259  1.0000
  O   O3210     1.0  0.25427  0.26977  0.87556  1.0000
  C   C1071     1.0  0.31587  0.27242  0.75771  1.0000
  O   O3211     1.0  0.29896  0.28622  0.76940  1.0000
  O   O3212     1.0  0.33695  0.26871  0.77115  1.0000
  O   O3213     1.0  0.31170  0.26233  0.73258  1.0000
  C   C1072     1.0  0.29675  0.07669  0.49686  1.0000
  O   O3214     1.0  0.29537  0.09925  0.48946  1.0000
  O   O3215     1.0  0.27930  0.06714  0.51289  1.0000
  O   O3216     1.0  0.31557  0.06368  0.48823  1.0000
  C   C1073     1.0  0.43688  0.32326  0.44188  1.0000
  O   O3217     1.0  0.42004  0.33819  0.43229  1.0000
  O   O3218     1.0  0.45553  0.31710  0.42526  1.0000
  O   O3219     1.0  0.43506  0.31448  0.46809  1.0000
  C   C1074     1.0  0.17061  0.10027  0.71105  1.0000
  O   O3220     1.0  0.19082  0.10902  0.72275  1.0000
  O   O3221     1.0  0.15265  0.09229  0.72757  1.0000
  O   O3222     1.0  0.16836  0.09949  0.68282  1.0000
  C   C1075     1.0  0.32676  0.23004  0.43648  1.0000
  O   O3223     1.0  0.31568  0.22469  0.46089  1.0000
  O   O3224     1.0  0.34764  0.21950  0.42949  1.0000
  O   O3225     1.0  0.31695  0.24593  0.41906  1.0000
  C   C1076     1.0  0.12456  0.02308  0.97716  1.0000
  O   O3226     1.0  0.11737  0.00977  0.95538  1.0000
  O   O3227     1.0  0.13576  0.04348  0.97231  1.0000
  O   O3228     1.0  0.12055  0.01599  0.00379  1.0000
  C   C1077     1.0  0.10852  0.14613  0.95101  1.0000
  O   O3229     1.0  0.13275  0.14401  0.95119  1.0000
  O   O3230     1.0  0.09802  0.16352  0.93649  1.0000
  O   O3231     1.0  0.09478  0.13085  0.96535  1.0000
  C   C1078     1.0  0.14693  0.08594  0.87882  1.0000
  O   O3232     1.0  0.12603  0.07865  0.89035  1.0000
  O   O3233     1.0  0.15661  0.07429  0.85695  1.0000
  O   O3234     1.0  0.15815  0.10488  0.88916  1.0000
  C   C1079     1.0  0.24967  0.18458  0.96329  1.0000
  O   O3235     1.0  0.26563  0.18543  0.94191  1.0000
  O   O3236     1.0  0.23158  0.16893  0.96283  1.0000
  O   O3237     1.0  0.25180  0.19938  0.98513  1.0000
  C   C1080     1.0  0.20874  0.13348  0.98075  1.0000
  O   O3238     1.0  0.23190  0.13851  0.98697  1.0000
  O   O3239     1.0  0.19285  0.15077  0.97598  1.0000
  O   O3240     1.0  0.20148  0.11117  0.97930  1.0000
  C   C1081     1.0  0.20413  0.10658  0.89241  1.0000
  O   O3241     1.0  0.22203  0.10344  0.87358  1.0000
  O   O3242     1.0  0.19823  0.12820  0.90086  1.0000
  O   O3243     1.0  0.19213  0.08810  0.90279  1.0000
  C   C1082     1.0  0.21468  0.20579  0.46175  1.0000
  O   O3244     1.0  0.20377  0.20303  0.43661  1.0000
  O   O3245     1.0  0.22043  0.22725  0.47091  1.0000
  O   O3246     1.0  0.21984  0.18709  0.47772  1.0000
  C   C1083     1.0  0.23901  0.20966  0.79169  1.0000
  O   O3247     1.0  0.23120  0.22839  0.77731  1.0000
  O   O3248     1.0  0.26208  0.20860  0.80061  1.0000
  O   O3249     1.0  0.22375  0.19199  0.79715  1.0000
  C   C1084     1.0  0.30263  0.16055  0.83752  1.0000
  O   O3250     1.0  0.32673  0.15915  0.83396  1.0000
  O   O3251     1.0  0.28863  0.14184  0.83255  1.0000
  O   O3252     1.0  0.29253  0.18066  0.84605  1.0000
  C   C1085     1.0  0.25875  0.14579  0.52257  1.0000
  O   O3253     1.0  0.25420  0.12280  0.52172  1.0000
  O   O3254     1.0  0.25740  0.15856  0.49884  1.0000
  O   O3255     1.0  0.26465  0.15602  0.54714  1.0000
  C   C1086     1.0  0.18653  0.22293  0.76081  1.0000
  O   O3256     1.0  0.16734  0.22842  0.74469  1.0000
  O   O3257     1.0  0.19430  0.20077  0.76211  1.0000
  O   O3258     1.0  0.19795  0.23960  0.77563  1.0000
  C   C1087     1.0  0.19826  0.09087  0.56337  1.0000
  O   O3259     1.0  0.18514  0.10777  0.57568  1.0000
  O   O3260     1.0  0.22238  0.09321  0.56092  1.0000
  O   O3261     1.0  0.18726  0.07163  0.55352  1.0000
  C   C1088     1.0  0.18724  0.15317  0.66259  1.0000
  O   O3262     1.0  0.19999  0.17255  0.65688  1.0000
  O   O3263     1.0  0.16686  0.14854  0.64815  1.0000
  O   O3264     1.0  0.19487  0.13843  0.68275  1.0000
  C   C1089     1.0  0.19719  0.08135  0.77346  1.0000
  O   O3265     1.0  0.20624  0.10296  0.77631  1.0000
  O   O3266     1.0  0.18316  0.07611  0.75117  1.0000
  O   O3267     1.0  0.20216  0.06499  0.79290  1.0000
  C   C1090     1.0  0.28315  0.15018  0.70548  1.0000
  O   O3268     1.0  0.28625  0.13391  0.68541  1.0000
  O   O3269     1.0  0.30210  0.16293  0.71432  1.0000
  O   O3270     1.0  0.26111  0.15370  0.71671  1.0000
  C   C1091     1.0  0.36400  0.14314  0.76891  1.0000
  O   O3271     1.0  0.36425  0.16209  0.75226  1.0000
  O   O3272     1.0  0.34407  0.13788  0.78389  1.0000
  O   O3273     1.0  0.38368  0.12944  0.77058  1.0000
  C   C1092     1.0  0.17337  0.23721  0.89075  1.0000
  O   O3274     1.0  0.16916  0.23450  0.91849  1.0000
  O   O3275     1.0  0.17913  0.21867  0.87478  1.0000
  O   O3276     1.0  0.17181  0.25846  0.87897  1.0000
  C   C1093     1.0  0.06020  0.14513  0.88334  1.0000
  O   O3277     1.0  0.04798  0.12771  0.87084  1.0000
  O   O3278     1.0  0.06872  0.16292  0.86781  1.0000
  O   O3279     1.0  0.06390  0.14476  0.91137  1.0000
  C   C1094     1.0  0.21657  0.87666  0.12356  1.0000
  O   O3280     1.0  0.19997  0.88777  0.13934  1.0000
  O   O3281     1.0  0.22194  0.88455  0.09760  1.0000
  O   O3282     1.0  0.22780  0.85767  0.13374  1.0000
  C   C1095     1.0  0.31610  0.53824  0.17169  1.0000
  O   O3283     1.0  0.31844  0.54301  0.19932  1.0000
  O   O3284     1.0  0.33204  0.52405  0.15890  1.0000
  O   O3285     1.0  0.29782  0.54766  0.15685  1.0000
  C   C1096     1.0  0.40722  0.36070  0.14991  1.0000
  O   O3286     1.0  0.40773  0.36727  0.17713  1.0000
  O   O3287     1.0  0.38590  0.35793  0.13666  1.0000
  O   O3288     1.0  0.42803  0.35690  0.13594  1.0000
  C   C1097     1.0  0.28185  0.47955  0.04784  1.0000
  O   O3289     1.0  0.27890  0.50125  0.03775  1.0000
  O   O3290     1.0  0.27542  0.47456  0.07452  1.0000
  O   O3291     1.0  0.29124  0.46284  0.03125  1.0000
  C   C1098     1.0  0.31751  0.48060  0.12994  1.0000
  O   O3292     1.0  0.31848  0.46211  0.11257  1.0000
  O   O3293     1.0  0.32379  0.47828  0.15720  1.0000
  O   O3294     1.0  0.31026  0.50141  0.12005  1.0000
  C   C1099     1.0  0.38531  0.48941  0.18848  1.0000
  O   O3295     1.0  0.38525  0.46789  0.19967  1.0000
  O   O3296     1.0  0.40486  0.49711  0.17440  1.0000
  O   O3297     1.0  0.36582  0.50323  0.19137  1.0000
  C   C1100     1.0  0.24759  0.47012  0.24941  1.0000
  O   O3298     1.0  0.27086  0.47420  0.24275  1.0000
  O   O3299     1.0  0.24189  0.46130  0.27483  1.0000
  O   O3300     1.0  0.23002  0.47486  0.23065  1.0000
  C   C1101     1.0  0.21889  0.52099  0.30944  1.0000
  O   O3301     1.0  0.22175  0.51202  0.28345  1.0000
  O   O3302     1.0  0.23797  0.53007  0.32317  1.0000
  O   O3303     1.0  0.19695  0.52087  0.32170  1.0000
  C   C1102     1.0  0.34900  0.40959  0.22316  1.0000
  O   O3304     1.0  0.34458  0.41465  0.19595  1.0000
  O   O3305     1.0  0.33874  0.42237  0.24370  1.0000
  O   O3306     1.0  0.36368  0.39175  0.22983  1.0000
  C   C1103     1.0  0.40430  0.61496  0.16973  1.0000
  O   O3307     1.0  0.39066  0.60102  0.15340  1.0000
  O   O3308     1.0  0.42693  0.60857  0.17669  1.0000
  O   O3309     1.0  0.39530  0.63529  0.17911  1.0000
  C   C1104     1.0  0.42959  0.47195  0.35378  1.0000
  O   O3310     1.0  0.43945  0.49336  0.35340  1.0000
  O   O3311     1.0  0.44157  0.45418  0.36587  1.0000
  O   O3312     1.0  0.40775  0.46831  0.34207  1.0000
  C   C1105     1.0  0.40875  0.43813  0.26547  1.0000
  O   O3313     1.0  0.39753  0.41916  0.27573  1.0000
  O   O3314     1.0  0.42555  0.43588  0.24513  1.0000
  O   O3315     1.0  0.40317  0.45935  0.27554  1.0000
  C   C1106     1.0  0.38086  0.53670  0.23265  1.0000
  O   O3316     1.0  0.39612  0.53303  0.21101  1.0000
  O   O3317     1.0  0.35683  0.53522  0.22858  1.0000
  O   O3318     1.0  0.38963  0.54184  0.25836  1.0000
  C   C1107     1.0  0.51740  0.50048  0.25217  1.0000
  O   O3319     1.0  0.52749  0.47941  0.25598  1.0000
  O   O3320     1.0  0.50849  0.50641  0.22677  1.0000
  O   O3321     1.0  0.51622  0.51562  0.27376  1.0000
  C   C1108     1.0  0.43276  0.57213  0.30969  1.0000
  O   O3322     1.0  0.42799  0.59009  0.29237  1.0000
  O   O3323     1.0  0.43127  0.55016  0.30003  1.0000
  O   O3324     1.0  0.43902  0.57613  0.33667  1.0000
  C   C1109     1.0  0.28015  0.18362  0.34007  1.0000
  O   O3325     1.0  0.26389  0.16798  0.34937  1.0000
  O   O3326     1.0  0.29997  0.18832  0.35551  1.0000
  O   O3327     1.0  0.27659  0.19455  0.31533  1.0000
  C   C1110     1.0  0.28975  0.10088  0.66967  1.0000
  O   O3328     1.0  0.27549  0.09873  0.64683  1.0000
  O   O3329     1.0  0.31358  0.10487  0.66652  1.0000
  O   O3330     1.0  0.28018  0.09904  0.69566  1.0000
  C   C1111     1.0  0.32492  0.13600  0.58522  1.0000
  O   O3331     1.0  0.31465  0.15250  0.56903  1.0000
  O   O3332     1.0  0.33935  0.11984  0.57346  1.0000
  O   O3333     1.0  0.32075  0.13566  0.61316  1.0000
  C   C1112     1.0  0.46100  0.15263  0.59987  1.0000
  O   O3334     1.0  0.47247  0.16271  0.57804  1.0000
  O   O3335     1.0  0.47351  0.13962  0.61841  1.0000
  O   O3336     1.0  0.43702  0.15556  0.60316  1.0000
  C   C1113     1.0  0.85659  0.94096  0.91197  1.0000
  O   O3337     1.0  0.87533  0.95250  0.92346  1.0000
  O   O3338     1.0  0.85961  0.91907  0.90252  1.0000
  O   O3339     1.0  0.83483  0.95130  0.90993  1.0000
  C   C1114     1.0  0.82385  0.08411  0.95468  1.0000
  O   O3340     1.0  0.83383  0.07407  0.97751  1.0000
  O   O3341     1.0  0.81666  0.10646  0.95576  1.0000
  O   O3342     1.0  0.82106  0.07180  0.93077  1.0000
  C   C1115     1.0  0.85429  0.03376  0.91216  1.0000
  O   O3343     1.0  0.86749  0.01411  0.91118  1.0000
  O   O3344     1.0  0.83888  0.03884  0.89109  1.0000
  O   O3345     1.0  0.85650  0.04833  0.93421  1.0000
  C   C1116     1.0  0.82102  0.99688  0.93795  1.0000
  O   O3346     1.0  0.82649  0.01940  0.93354  1.0000
  O   O3347     1.0  0.83470  0.98396  0.95542  1.0000
  O   O3348     1.0  0.80187  0.98727  0.92489  1.0000
  C   C1117     1.0  0.67314  0.92697  0.22307  1.0000
  O   O3349     1.0  0.66947  0.94380  0.24232  1.0000
  O   O3350     1.0  0.69005  0.92977  0.20296  1.0000
  O   O3351     1.0  0.65990  0.90734  0.22393  1.0000
  C   C1118     1.0  0.72557  0.36624  0.94133  1.0000
  O   O3352     1.0  0.71963  0.34406  0.93544  1.0000
  O   O3353     1.0  0.71731  0.37636  0.96503  1.0000
  O   O3354     1.0  0.73977  0.37830  0.92352  1.0000
  C   C1119     1.0  0.62929  0.07493  0.46304  1.0000
  O   O3355     1.0  0.64896  0.06529  0.47497  1.0000
  O   O3356     1.0  0.61644  0.09102  0.47719  1.0000
  O   O3357     1.0  0.62247  0.06848  0.43696  1.0000
  C   C1120     1.0  0.79302  0.08380  0.19708  1.0000
  O   O3358     1.0  0.81218  0.08383  0.17960  1.0000
  O   O3359     1.0  0.77051  0.08184  0.18657  1.0000
  O   O3360     1.0  0.79637  0.08573  0.22508  1.0000
  C   C1121     1.0  0.65685  0.15537  0.37689  1.0000
  O   O3361     1.0  0.63894  0.14099  0.38498  1.0000
  O   O3362     1.0  0.67325  0.16278  0.39583  1.0000
  O   O3363     1.0  0.65836  0.16234  0.34987  1.0000
  C   C1122     1.0  0.61415  0.19150  0.46852  1.0000
  O   O3364     1.0  0.59293  0.18488  0.45719  1.0000
  O   O3365     1.0  0.62012  0.18463  0.49473  1.0000
  O   O3366     1.0  0.62940  0.20499  0.45364  1.0000
  C   C1123     1.0  0.69826  0.07414  0.32119  1.0000
  O   O3367     1.0  0.69554  0.07671  0.34920  1.0000
  O   O3368     1.0  0.68458  0.05865  0.30711  1.0000
  O   O3369     1.0  0.71466  0.08706  0.30726  1.0000
  C   C1124     1.0  0.72949  0.03472  0.29397  1.0000
  O   O3370     1.0  0.72728  0.03017  0.32167  1.0000
  O   O3371     1.0  0.74128  0.01969  0.27711  1.0000
  O   O3372     1.0  0.71991  0.05430  0.28313  1.0000
  C   C1125     1.0  0.66185  0.01916  0.21083  1.0000
  O   O3373     1.0  0.67506  0.00429  0.19525  1.0000
  O   O3374     1.0  0.63805  0.01538  0.21451  1.0000
  O   O3375     1.0  0.67244  0.03781  0.22272  1.0000
  C   C1126     1.0  0.68890  0.19285  0.32988  1.0000
  O   O3376     1.0  0.68806  0.18589  0.35694  1.0000
  O   O3377     1.0  0.69403  0.21515  0.32366  1.0000
  O   O3378     1.0  0.68461  0.17751  0.30904  1.0000
  C   C1127     1.0  0.81141  0.19541  0.33825  1.0000
  O   O3379     1.0  0.81213  0.21578  0.35221  1.0000
  O   O3380     1.0  0.82532  0.17753  0.34675  1.0000
  O   O3381     1.0  0.79678  0.19292  0.31579  1.0000
  C   C1128     1.0  0.81954  0.30495  0.28846  1.0000
  O   O3382     1.0  0.82489  0.29505  0.31340  1.0000
  O   O3383     1.0  0.81741  0.29169  0.26522  1.0000
  O   O3384     1.0  0.81632  0.32812  0.28677  1.0000
  C   C1129     1.0  0.77559  0.20063  0.26643  1.0000
  O   O3385     1.0  0.78657  0.18036  0.27254  1.0000
  O   O3386     1.0  0.76597  0.21359  0.28722  1.0000
  O   O3387     1.0  0.77423  0.20794  0.23953  1.0000
  C   C1130     1.0  0.97432  0.85627  0.38281  1.0000
  O   O3388     1.0  0.97870  0.84772  0.40872  1.0000
  O   O3389     1.0  0.99036  0.87070  0.37059  1.0000
  O   O3390     1.0  0.95390  0.85039  0.36913  1.0000
  C   C1131     1.0  0.98930  0.93766  0.47656  1.0000
  O   O3391     1.0  0.01199  0.93552  0.46665  1.0000
  O   O3392     1.0  0.98116  0.92294  0.49647  1.0000
  O   O3393     1.0  0.97475  0.95451  0.46655  1.0000
  C   C1132     1.0  0.03715  0.99342  0.45221  1.0000
  O   O3394     1.0  0.05769  0.99342  0.43701  1.0000
  O   O3395     1.0  0.02494  0.01340  0.45625  1.0000
  O   O3396     1.0  0.02882  0.97344  0.46337  1.0000
  C   C1133     1.0  0.10526  0.93766  0.42939  1.0000
  O   O3397     1.0  0.09820  0.91785  0.44207  1.0000
  O   O3398     1.0  0.12363  0.93732  0.41079  1.0000
  O   O3399     1.0  0.09395  0.95781  0.43530  1.0000
  C   C1134     1.0  0.70391  0.93650  0.28220  1.0000
  O   O3400     1.0  0.68324  0.92552  0.28905  1.0000
  O   O3401     1.0  0.71704  0.94713  0.30231  1.0000
  O   O3402     1.0  0.71146  0.93684  0.25524  1.0000
  C   C1135     1.0  0.78027  0.10633  0.38955  1.0000
  O   O3403     1.0  0.75918  0.11292  0.40123  1.0000
  O   O3404     1.0  0.79313  0.12155  0.37407  1.0000
  O   O3405     1.0  0.78850  0.08452  0.39335  1.0000
  C   C1136     1.0  0.02125  0.89720  0.31034  1.0000
  O   O3406     1.0  0.04517  0.89530  0.31502  1.0000
  O   O3407     1.0  0.01250  0.91562  0.29610  1.0000
  O   O3408     1.0  0.00608  0.88068  0.31990  1.0000
  C   C1137     1.0  0.89288  0.85208  0.13341  1.0000
  O   O3409     1.0  0.87274  0.83985  0.12761  1.0000
  O   O3410     1.0  0.89115  0.87330  0.14524  1.0000
  O   O3411     1.0  0.91475  0.84310  0.12738  1.0000
  C   C1138     1.0  0.98555  0.89371  0.18995  1.0000
  O   O3412     1.0  0.97152  0.89717  0.21274  1.0000
  O   O3413     1.0  0.97701  0.89863  0.16406  1.0000
  O   O3414     1.0  0.00812  0.88533  0.19304  1.0000
  C   C1139     1.0  0.84960  0.86740  0.19285  1.0000
  O   O3415     1.0  0.86116  0.86252  0.21710  1.0000
  O   O3416     1.0  0.84231  0.85002  0.17585  1.0000
  O   O3417     1.0  0.84532  0.88966  0.18561  1.0000
  C   C1140     1.0  0.99006  0.87385  0.26247  1.0000
  O   O3418     1.0  0.99323  0.85690  0.28168  1.0000
  O   O3419     1.0  0.00716  0.87786  0.24288  1.0000
  O   O3420     1.0  0.96979  0.88680  0.26285  1.0000
  C   C1141     1.0  0.93992  0.91244  0.28573  1.0000
  O   O3421     1.0  0.92001  0.89900  0.28679  1.0000
  O   O3422     1.0  0.95348  0.91550  0.30899  1.0000
  O   O3423     1.0  0.94627  0.92282  0.26141  1.0000
  C   C1142     1.0  0.09617  0.88189  0.31455  1.0000
  O   O3424     1.0  0.07847  0.86589  0.31624  1.0000
  O   O3425     1.0  0.11351  0.88268  0.33442  1.0000
  O   O3426     1.0  0.09653  0.89710  0.29299  1.0000
  C   C1143     1.0  0.77236  0.96850  0.18641  1.0000
  O   O3427     1.0  0.76939  0.97971  0.16175  1.0000
  O   O3428     1.0  0.79467  0.96574  0.19723  1.0000
  O   O3429     1.0  0.75302  0.96005  0.20025  1.0000
  C   C1144     1.0  0.71228  0.95966  0.16301  1.0000
  O   O3430     1.0  0.72298  0.98054  0.16001  1.0000
  O   O3431     1.0  0.68805  0.95821  0.16487  1.0000
  O   O3432     1.0  0.72581  0.94022  0.16414  1.0000
  C   C1145     1.0  0.71639  0.89690  0.45075  1.0000
  O   O3433     1.0  0.72679  0.87829  0.46296  1.0000
  O   O3434     1.0  0.71687  0.89926  0.42254  1.0000
  O   O3435     1.0  0.70550  0.91315  0.46675  1.0000
  C   C1146     1.0  0.81130  0.04490  0.15266  1.0000
  O   O3436     1.0  0.82172  0.02454  0.15962  1.0000
  O   O3437     1.0  0.79016  0.05111  0.16452  1.0000
  O   O3438     1.0  0.82202  0.05906  0.13384  1.0000
  C   C1147     1.0  0.89306  0.93354  0.42838  1.0000
  O   O3439     1.0  0.91668  0.92800  0.42713  1.0000
  O   O3440     1.0  0.88623  0.95601  0.42877  1.0000
  O   O3441     1.0  0.87627  0.91661  0.42923  1.0000
  C   C1148     1.0  0.81116  0.98028  0.31194  1.0000
  O   O3442     1.0  0.81319  0.99325  0.33544  1.0000
  O   O3443     1.0  0.80204  0.98971  0.28825  1.0000
  O   O3444     1.0  0.81825  0.95788  0.31213  1.0000
  C   C1149     1.0  0.86896  0.93324  0.37533  1.0000
  O   O3445     1.0  0.85916  0.95311  0.38506  1.0000
  O   O3446     1.0  0.89300  0.92987  0.37699  1.0000
  O   O3447     1.0  0.85472  0.91674  0.36394  1.0000
  C   C1150     1.0  0.99710  0.04059  0.34293  1.0000
  O   O3448     1.0  0.99973  0.03075  0.36848  1.0000
  O   O3449     1.0  0.98671  0.02855  0.32183  1.0000
  O   O3450     1.0  0.00486  0.06247  0.33847  1.0000
  C   C1151     1.0  0.00104  0.93485  0.34184  1.0000
  O   O3451     1.0  0.99111  0.95614  0.33946  1.0000
  O   O3452     1.0  0.98690  0.91624  0.34678  1.0000
  O   O3453     1.0  0.02511  0.93218  0.33928  1.0000
  C   C1152     1.0  0.94982  0.00698  0.39278  1.0000
  O   O3454     1.0  0.93202  0.99223  0.40017  1.0000
  O   O3455     1.0  0.94986  0.02891  0.40273  1.0000
  O   O3456     1.0  0.96758  0.99980  0.37545  1.0000
  C   C1153     1.0  0.88119  0.99838  0.30404  1.0000
  O   O3457     1.0  0.87531  0.02087  0.30016  1.0000
  O   O3458     1.0  0.88051  0.98909  0.33006  1.0000
  O   O3459     1.0  0.88774  0.98518  0.28189  1.0000
  C   C1154     1.0  0.90589  0.99522  0.17515  1.0000
  O   O3460     1.0  0.92367  0.00771  0.18723  1.0000
  O   O3461     1.0  0.88289  0.00280  0.17634  1.0000
  O   O3462     1.0  0.91111  0.97514  0.16188  1.0000
  C   C1155     1.0  0.80211  0.89818  0.35040  1.0000
  O   O3463     1.0  0.81662  0.91276  0.33602  1.0000
  O   O3464     1.0  0.80599  0.89436  0.37802  1.0000
  O   O3465     1.0  0.78373  0.88742  0.33716  1.0000
  C   C1156     1.0  0.78117  0.14609  0.16731  1.0000
  O   O3466     1.0  0.79592  0.16175  0.15510  1.0000
  O   O3467     1.0  0.75858  0.15224  0.17476  1.0000
  O   O3468     1.0  0.78901  0.12428  0.17207  1.0000
  C   C1157     1.0  0.81620  0.07902  0.28515  1.0000
  O   O3469     1.0  0.82146  0.07146  0.25902  1.0000
  O   O3470     1.0  0.79566  0.07212  0.29785  1.0000
  O   O3471     1.0  0.83148  0.09348  0.29858  1.0000
  C   C1158     1.0  0.86341  0.13707  0.23450  1.0000
  O   O3472     1.0  0.85972  0.13871  0.26247  1.0000
  O   O3473     1.0  0.85663  0.15457  0.21739  1.0000
  O   O3474     1.0  0.87388  0.11793  0.22364  1.0000
  C   C1159     1.0  0.79563  0.12738  0.33302  1.0000
  O   O3475     1.0  0.78934  0.15000  0.33288  1.0000
  O   O3476     1.0  0.77856  0.11085  0.33022  1.0000
  O   O3477     1.0  0.81899  0.12129  0.33595  1.0000
  C   C1160     1.0  0.92558  0.12233  0.24998  1.0000
  O   O3478     1.0  0.93397  0.14412  0.25346  1.0000
  O   O3479     1.0  0.94055  0.10537  0.24115  1.0000
  O   O3480     1.0  0.90222  0.11750  0.25534  1.0000
  C   C1161     1.0  0.00384  0.08271  0.28822  1.0000
  O   O3481     1.0  0.99332  0.10382  0.28895  1.0000
  O   O3482     1.0  0.02637  0.07988  0.29837  1.0000
  O   O3483     1.0  0.99183  0.06444  0.27734  1.0000
  C   C1162     1.0  0.59293  0.76422  0.78424  1.0000
  O   O3484     1.0  0.58785  0.74189  0.77812  1.0000
  O   O3485     1.0  0.58374  0.78141  0.76825  1.0000
  O   O3486     1.0  0.60720  0.76936  0.80635  1.0000
  C   C1163     1.0  0.56020  0.72408  0.77271  1.0000
  O   O3487     1.0  0.56244  0.71942  0.80038  1.0000
  O   O3488     1.0  0.54151  0.73695  0.76341  1.0000
  O   O3489     1.0  0.57666  0.71587  0.75434  1.0000
  C   C1164     1.0  0.75159  0.70809  0.79910  1.0000
  O   O3490     1.0  0.74295  0.69267  0.81792  1.0000
  O   O3491     1.0  0.75702  0.70114  0.77276  1.0000
  O   O3492     1.0  0.75481  0.73045  0.80662  1.0000
  C   C1165     1.0  0.68455  0.78943  0.74897  1.0000
  O   O3493     1.0  0.68749  0.76714  0.75696  1.0000
  O   O3494     1.0  0.68373  0.80640  0.76849  1.0000
  O   O3495     1.0  0.68243  0.79475  0.72146  1.0000
  C   C1166     1.0  0.97672  0.53624  0.70933  1.0000
  O   O3496     1.0  0.00058  0.54081  0.70868  1.0000
  O   O3497     1.0  0.96793  0.52053  0.72770  1.0000
  O   O3498     1.0  0.96165  0.54738  0.69161  1.0000
  C   C1167     1.0  0.99541  0.58810  0.88911  1.0000
  O   O3499     1.0  0.98418  0.57707  0.91044  1.0000
  O   O3500     1.0  0.99833  0.57732  0.86416  1.0000
  O   O3501     1.0  0.00371  0.60990  0.89273  1.0000
  C   C1168     1.0  0.03547  0.55798  0.77339  1.0000
  O   O3502     1.0  0.01554  0.56619  0.78626  1.0000
  O   O3503     1.0  0.05331  0.54832  0.78872  1.0000
  O   O3504     1.0  0.03756  0.55942  0.74518  1.0000
  C   C1169     1.0  0.92193  0.71257  0.93969  1.0000
  O   O3505     1.0  0.92025  0.73552  0.94499  1.0000
  O   O3506     1.0  0.93277  0.70509  0.91596  1.0000
  O   O3507     1.0  0.91278  0.69710  0.95812  1.0000
  C   C1170     1.0  0.99160  0.70182  0.00157  1.0000
  O   O3508     1.0  0.00936  0.68639  0.00673  1.0000
  O   O3509     1.0  0.98046  0.71263  0.02313  1.0000
  O   O3510     1.0  0.98498  0.70644  0.97486  1.0000
  C   C1171     1.0  0.94349  0.53600  0.88066  1.0000
  O   O3511     1.0  0.92587  0.53982  0.89967  1.0000
  O   O3512     1.0  0.94885  0.51413  0.87270  1.0000
  O   O3513     1.0  0.95575  0.55405  0.86961  1.0000
  C   C1172     1.0  0.78634  0.57649  0.49540  1.0000
  O   O3514     1.0  0.76718  0.58992  0.48901  1.0000
  O   O3515     1.0  0.78335  0.55352  0.49968  1.0000
  O   O3516     1.0  0.80849  0.58602  0.49751  1.0000
  C   C1173     1.0  0.20556  0.84937  0.96221  1.0000
  O   O3517     1.0  0.18615  0.84193  0.94767  1.0000
  O   O3518     1.0  0.22770  0.84833  0.95051  1.0000
  O   O3519     1.0  0.20282  0.85785  0.98845  1.0000
  C   C1174     1.0  0.32281  0.73936  0.98085  1.0000
  O   O3520     1.0  0.31852  0.76047  0.99204  1.0000
  O   O3521     1.0  0.33926  0.73695  0.96016  1.0000
  O   O3522     1.0  0.31065  0.72066  0.99035  1.0000
  C   C1175     1.0  0.28572  0.82323  0.04351  1.0000
  O   O3523     1.0  0.28361  0.82759  0.01575  1.0000
  O   O3524     1.0  0.26592  0.81847  0.05895  1.0000
  O   O3525     1.0  0.30763  0.82363  0.05583  1.0000
  C   C1176     1.0  0.16440  0.71024  0.97477  1.0000
  O   O3526     1.0  0.18671  0.70810  0.96374  1.0000
  O   O3527     1.0  0.15267  0.69133  0.98441  1.0000
  O   O3528     1.0  0.15382  0.73129  0.97617  1.0000
  C   C1177     1.0  0.20260  0.72658  0.00895  1.0000
  O   O3529     1.0  0.22059  0.71241  0.00057  1.0000
  O   O3530     1.0  0.17950  0.71930  0.00764  1.0000
  O   O3531     1.0  0.20771  0.74803  0.01864  1.0000
  C   C1178     1.0  0.36823  0.84783  0.05530  1.0000
  O   O3532     1.0  0.34605  0.85175  0.04464  1.0000
  O   O3533     1.0  0.38683  0.84312  0.03792  1.0000
  O   O3534     1.0  0.37181  0.84862  0.08334  1.0000
  C   C1179     1.0  0.33779  0.83719  0.10503  1.0000
  O   O3535     1.0  0.34077  0.82347  0.08231  1.0000
  O   O3536     1.0  0.34539  0.82995  0.13051  1.0000
  O   O3537     1.0  0.32721  0.85815  0.10227  1.0000
  C   C1180     1.0  0.36563  0.76717  0.05201  1.0000
  O   O3538     1.0  0.38929  0.76796  0.04547  1.0000
  O   O3539     1.0  0.34964  0.77985  0.03714  1.0000
  O   O3540     1.0  0.35796  0.75370  0.07342  1.0000
  C   C1181     1.0  0.22797  0.76465  0.08376  1.0000
  O   O3541     1.0  0.23489  0.77841  0.10525  1.0000
  O   O3542     1.0  0.24378  0.75922  0.06322  1.0000
  O   O3543     1.0  0.20524  0.75632  0.08281  1.0000
  C   C1182     1.0  0.13251  0.80138  0.10186  1.0000
  O   O3544     1.0  0.11647  0.80566  0.08117  1.0000
  O   O3545     1.0  0.12774  0.78500  0.12135  1.0000
  O   O3546     1.0  0.15332  0.81348  0.10306  1.0000
  C   C1183     1.0  0.06919  0.81315  0.16862  1.0000
  O   O3547     1.0  0.08528  0.83035  0.16429  1.0000
  O   O3548     1.0  0.04861  0.81245  0.15351  1.0000
  O   O3549     1.0  0.07368  0.79666  0.18806  1.0000
  C   C1184     1.0  0.02020  0.74625  0.94987  1.0000
  O   O3550     1.0  0.02386  0.75207  0.97701  1.0000
  O   O3551     1.0  0.01841  0.72371  0.94247  1.0000
  O   O3552     1.0  0.01834  0.76296  0.93013  1.0000
  C   C1185     1.0  0.06533  0.81574  0.04716  1.0000
  O   O3553     1.0  0.08796  0.82343  0.05186  1.0000
  O   O3554     1.0  0.04667  0.82495  0.06155  1.0000
  O   O3555     1.0  0.06136  0.79884  0.02808  1.0000
  C   C1186     1.0  0.89522  0.74286  0.84351  1.0000
  O   O3556     1.0  0.90191  0.76493  0.84890  1.0000
  O   O3557     1.0  0.87628  0.73859  0.82647  1.0000
  O   O3558     1.0  0.90747  0.72506  0.85515  1.0000
  C   C1187     1.0  0.98601  0.76278  0.73772  1.0000
  O   O3559     1.0  0.99018  0.78161  0.72158  1.0000
  O   O3560     1.0  0.97876  0.74273  0.72576  1.0000
  O   O3561     1.0  0.98909  0.76400  0.76582  1.0000
  C   C1188     1.0  0.94272  0.69145  0.79406  1.0000
  O   O3562     1.0  0.96248  0.69281  0.81053  1.0000
  O   O3563     1.0  0.92568  0.70813  0.79539  1.0000
  O   O3564     1.0  0.94000  0.67341  0.77626  1.0000
  C   C1189     1.0  0.12363  0.81415  0.95362  1.0000
  O   O3565     1.0  0.13716  0.80531  0.97463  1.0000
  O   O3566     1.0  0.10088  0.80652  0.94967  1.0000
  O   O3567     1.0  0.13286  0.83062  0.93657  1.0000
  C   C1190     1.0  0.96956  0.80507  0.70048  1.0000
  O   O3568     1.0  0.95081  0.79292  0.71099  1.0000
  O   O3569     1.0  0.97560  0.82571  0.71186  1.0000
  O   O3570     1.0  0.98226  0.79657  0.67859  1.0000
  C   C1191     1.0  0.01876  0.85875  0.80453  1.0000
  O   O3571     1.0  0.99927  0.85909  0.82151  1.0000
  O   O3572     1.0  0.02226  0.87600  0.78579  1.0000
  O   O3573     1.0  0.03475  0.84116  0.80629  1.0000
  C   C1192     1.0  0.10553  0.86148  0.97124  1.0000
  O   O3574     1.0  0.08363  0.86968  0.97860  1.0000
  O   O3575     1.0  0.11251  0.84016  0.97967  1.0000
  O   O3576     1.0  0.12045  0.87461  0.95545  1.0000
  C   C1193     1.0  0.19085  0.80594  0.97817  1.0000
  O   O3577     1.0  0.21165  0.81802  0.97656  1.0000
  O   O3578     1.0  0.18315  0.79349  0.95588  1.0000
  O   O3579     1.0  0.17774  0.80631  0.00206  1.0000
  C   C1194     1.0  0.08275  0.84089  0.91525  1.0000
  O   O3580     1.0  0.09352  0.84824  0.93907  1.0000
  O   O3581     1.0  0.07825  0.81809  0.91146  1.0000
  O   O3582     1.0  0.07648  0.85633  0.89522  1.0000
  C   C1195     1.0  0.99738  0.75824  0.61565  1.0000
  O   O3583     1.0  0.00324  0.77669  0.63173  1.0000
  O   O3584     1.0  0.98403  0.76123  0.59221  1.0000
  O   O3585     1.0  0.00486  0.73680  0.62301  1.0000
  C   C1196     1.0  0.88512  0.69090  0.55168  1.0000
  O   O3586     1.0  0.88034  0.67253  0.53500  1.0000
  O   O3587     1.0  0.90812  0.69779  0.55570  1.0000
  O   O3588     1.0  0.86690  0.70238  0.56434  1.0000
  C   C1197     1.0  0.82106  0.56897  0.33552  1.0000
  O   O3589     1.0  0.80916  0.54999  0.34467  1.0000
  O   O3590     1.0  0.84396  0.57287  0.34388  1.0000
  O   O3591     1.0  0.81006  0.58405  0.31801  1.0000
  C   C1198     1.0  0.83447  0.64412  0.41894  1.0000
  O   O3592     1.0  0.84557  0.62434  0.42687  1.0000
  O   O3593     1.0  0.81317  0.64318  0.40528  1.0000
  O   O3594     1.0  0.84467  0.66484  0.42468  1.0000
  C   C1199     1.0  0.82953  0.56786  0.45777  1.0000
  O   O3595     1.0  0.83626  0.55462  0.47981  1.0000
  O   O3596     1.0  0.84625  0.57987  0.44317  1.0000
  O   O3597     1.0  0.80608  0.56909  0.45033  1.0000
  C   C1200     1.0  0.81116  0.50192  0.52081  1.0000
  O   O3598     1.0  0.81333  0.47923  0.51430  1.0000
  O   O3599     1.0  0.81997  0.50997  0.54538  1.0000
  O   O3600     1.0  0.80018  0.51656  0.50275  1.0000
  C   C1201     1.0  0.95270  0.75513  0.55160  1.0000
  O   O3601     1.0  0.97658  0.75687  0.54660  1.0000
  O   O3602     1.0  0.94182  0.77025  0.56915  1.0000
  O   O3603     1.0  0.93970  0.73827  0.53905  1.0000
  C   C1202     1.0  0.22877  0.65692  0.95692  1.0000
  O   O3604     1.0  0.22153  0.67898  0.95257  1.0000
  O   O3605     1.0  0.23353  0.64297  0.93483  1.0000
  O   O3606     1.0  0.23125  0.64881  0.98337  1.0000
  C   C1203     1.0  0.21333  0.47496  0.00754  1.0000
  O   O3607     1.0  0.22713  0.47426  0.03089  1.0000
  O   O3608     1.0  0.20006  0.49401  0.00181  1.0000
  O   O3609     1.0  0.21280  0.45662  0.98992  1.0000
  C   C1204     1.0  0.26269  0.59532  0.06864  1.0000
  O   O3610     1.0  0.27907  0.58579  0.08615  1.0000
  O   O3611     1.0  0.26712  0.61610  0.05663  1.0000
  O   O3612     1.0  0.24188  0.58407  0.06314  1.0000
  C   C1205     1.0  0.24555  0.54933  0.96778  1.0000
  O   O3613     1.0  0.25516  0.53404  0.94945  1.0000
  O   O3614     1.0  0.22290  0.55726  0.96389  1.0000
  O   O3615     1.0  0.25859  0.55669  0.99001  1.0000
  C   C1206     1.0  0.07688  0.71747  0.74180  1.0000
  O   O3616     1.0  0.05493  0.71941  0.72979  1.0000
  O   O3617     1.0  0.08285  0.69796  0.75586  1.0000
  O   O3618     1.0  0.09287  0.73504  0.73975  1.0000
  C   C1207     1.0  0.01923  0.65279  0.75777  1.0000
  O   O3619     1.0  0.02075  0.67415  0.74629  1.0000
  O   O3620     1.0  0.99761  0.64222  0.76004  1.0000
  O   O3621     1.0  0.03933  0.64200  0.76697  1.0000
  C   C1208     1.0  0.11186  0.65707  0.80667  1.0000
  O   O3622     1.0  0.12817  0.66597  0.82475  1.0000
  O   O3623     1.0  0.09846  0.63855  0.81423  1.0000
  O   O3624     1.0  0.10896  0.66669  0.78103  1.0000
  C   C1209     1.0  0.14125  0.71947  0.78507  1.0000
  O   O3625     1.0  0.12474  0.71657  0.76453  1.0000
  O   O3626     1.0  0.15441  0.70123  0.79407  1.0000
  O   O3627     1.0  0.14460  0.74061  0.79661  1.0000
  C   C1210     1.0  0.97918  0.65079  0.88925  1.0000
  O   O3628     1.0  0.99793  0.64652  0.87193  1.0000
  O   O3629     1.0  0.98211  0.66482  0.91170  1.0000
  O   O3630     1.0  0.95750  0.64104  0.88412  1.0000
  C   C1211     1.0  0.08241  0.68932  0.87256  1.0000
  O   O3631     1.0  0.10461  0.68091  0.86700  1.0000
  O   O3632     1.0  0.07926  0.71226  0.87689  1.0000
  O   O3633     1.0  0.06336  0.67479  0.87378  1.0000
  C   C1212     1.0  0.00694  0.68523  0.81234  1.0000
  O   O3634     1.0  0.99790  0.68216  0.83841  1.0000
  O   O3635     1.0  0.01356  0.66669  0.79683  1.0000
  O   O3636     1.0  0.00935  0.70684  0.80178  1.0000
  C   C1213     1.0  0.15502  0.67742  0.86433  1.0000
  O   O3637     1.0  0.14749  0.66526  0.88692  1.0000
  O   O3638     1.0  0.14324  0.69688  0.85656  1.0000
  O   O3639     1.0  0.17433  0.67012  0.84950  1.0000
  C   C1214     1.0  0.06049  0.57936  0.89798  1.0000
  O   O3640     1.0  0.04160  0.57706  0.88032  1.0000
  O   O3641     1.0  0.07141  0.56033  0.90852  1.0000
  O   O3642     1.0  0.06846  0.60069  0.90510  1.0000
  C   C1215     1.0  0.06934  0.94188  0.53831  1.0000
  O   O3643     1.0  0.08087  0.94253  0.51334  1.0000
  O   O3644     1.0  0.08081  0.93376  0.56131  1.0000
  O   O3645     1.0  0.04634  0.94935  0.54028  1.0000
  C   C1216     1.0  0.98397  0.96206  0.55488  1.0000
  O   O3646     1.0  0.98288  0.94979  0.57900  1.0000
  O   O3647     1.0  0.98605  0.98538  0.55574  1.0000
  O   O3648     1.0  0.98298  0.95101  0.52990  1.0000
  C   C1217     1.0  0.20959  0.76037  0.94281  1.0000
  O   O3649     1.0  0.19512  0.74904  0.96102  1.0000
  O   O3650     1.0  0.22436  0.77731  0.95213  1.0000
  O   O3651     1.0  0.20929  0.75475  0.91528  1.0000
  C   C1218     1.0  0.07736  0.76567  0.68160  1.0000
  O   O3652     1.0  0.06631  0.75523  0.70348  1.0000
  O   O3653     1.0  0.09872  0.75757  0.67220  1.0000
  O   O3654     1.0  0.06705  0.78421  0.66912  1.0000
  C   C1219     1.0  0.89486  0.87589  0.50275  1.0000
  O   O3655     1.0  0.89052  0.89549  0.48807  1.0000
  O   O3656     1.0  0.89982  0.85594  0.48908  1.0000
  O   O3657     1.0  0.89423  0.87624  0.53110  1.0000
  C   C1220     1.0  0.13142  0.81228  0.72923  1.0000
  O   O3658     1.0  0.12767  0.82694  0.75091  1.0000
  O   O3659     1.0  0.15379  0.80968  0.71851  1.0000
  O   O3660     1.0  0.11281  0.80021  0.71827  1.0000
  C   C1221     1.0  0.18004  0.76231  0.88106  1.0000
  O   O3661     1.0  0.19228  0.77441  0.86141  1.0000
  O   O3662     1.0  0.17834  0.77055  0.90754  1.0000
  O   O3663     1.0  0.16949  0.74198  0.87423  1.0000
  C   C1222     1.0  0.25863  0.69448  0.89920  1.0000
  O   O3664     1.0  0.25933  0.67858  0.92001  1.0000
  O   O3665     1.0  0.23763  0.70498  0.89260  1.0000
  O   O3666     1.0  0.27893  0.69988  0.88499  1.0000
  C   C1223     1.0  0.15010  0.92866  0.92237  1.0000
  O   O3667     1.0  0.16752  0.93062  0.90271  1.0000
  O   O3668     1.0  0.13474  0.91051  0.92168  1.0000
  O   O3669     1.0  0.14804  0.94485  0.94272  1.0000
  C   C1224     1.0  0.17630  0.86310  0.90949  1.0000
  O   O3670     1.0  0.17002  0.85289  0.88504  1.0000
  O   O3671     1.0  0.16064  0.87732  0.92269  1.0000
  O   O3672     1.0  0.19824  0.85908  0.92074  1.0000
  C   C1225     1.0  0.21602  0.81418  0.81869  1.0000
  O   O3673     1.0  0.22802  0.79876  0.80256  1.0000
  O   O3674     1.0  0.19208  0.81177  0.82281  1.0000
  O   O3675     1.0  0.22797  0.83201  0.83070  1.0000
  C   C1226     1.0  0.23500  0.86043  0.75841  1.0000
  O   O3676     1.0  0.21521  0.86519  0.77386  1.0000
  O   O3677     1.0  0.25681  0.86810  0.76688  1.0000
  O   O3678     1.0  0.23298  0.84800  0.73449  1.0000
  C   C1227     1.0  0.09824  0.97038  0.98023  1.0000
  O   O3679     1.0  0.10303  0.96604  0.95292  1.0000
  O   O3680     1.0  0.11647  0.97220  0.99889  1.0000
  O   O3681     1.0  0.07522  0.97290  0.98888  1.0000
  C   C1228     1.0  0.19059  0.89876  0.99002  1.0000
  O   O3682     1.0  0.17973  0.91306  0.00857  1.0000
  O   O3683     1.0  0.21438  0.89425  0.99237  1.0000
  O   O3684     1.0  0.17766  0.88897  0.96912  1.0000
  C   C1229     1.0  0.10269  0.86091  0.80864  1.0000
  O   O3685     1.0  0.07938  0.86069  0.81677  1.0000
  O   O3686     1.0  0.11442  0.84075  0.80406  1.0000
  O   O3687     1.0  0.11428  0.88129  0.80509  1.0000
  C   C1230     1.0  0.12637  0.92320  0.77752  1.0000
  O   O3688     1.0  0.14113  0.94018  0.76828  1.0000
  O   O3689     1.0  0.12525  0.91823  0.80521  1.0000
  O   O3690     1.0  0.11273  0.91119  0.75907  1.0000
  C   C1231     1.0  0.07376  0.95253  0.71714  1.0000
  O   O3691     1.0  0.08093  0.94958  0.74401  1.0000
  O   O3692     1.0  0.05039  0.94947  0.71015  1.0000
  O   O3693     1.0  0.08996  0.95855  0.69726  1.0000
  C   C1232     1.0  0.08606  0.81152  0.69946  1.0000
  O   O3694     1.0  0.08388  0.82931  0.71773  1.0000
  O   O3695     1.0  0.06848  0.79540  0.69761  1.0000
  O   O3696     1.0  0.10582  0.80985  0.68304  1.0000
  C   C1233     1.0  0.17315  0.87088  0.71614  1.0000
  O   O3697     1.0  0.15407  0.85684  0.72071  1.0000
  O   O3698     1.0  0.19531  0.86448  0.72493  1.0000
  O   O3699     1.0  0.17007  0.89132  0.70278  1.0000
  C   C1234     1.0  0.08353  0.86691  0.67502  1.0000
  O   O3700     1.0  0.10405  0.85570  0.68197  1.0000
  O   O3701     1.0  0.08392  0.88365  0.65519  1.0000
  O   O3702     1.0  0.06263  0.86138  0.68790  1.0000
  C   C1235     1.0  0.08893  0.97921  0.66648  1.0000
  O   O3703     1.0  0.06551  0.97738  0.67387  1.0000
  O   O3704     1.0  0.09678  0.96956  0.64231  1.0000
  O   O3705     1.0  0.10450  0.99069  0.68326  1.0000
  C   C1236     1.0  0.07077  0.82636  0.54545  1.0000
  O   O3706     1.0  0.08250  0.80651  0.53916  1.0000
  O   O3707     1.0  0.05376  0.83466  0.52784  1.0000
  O   O3708     1.0  0.07606  0.83791  0.56934  1.0000
  C   C1237     1.0  0.01341  0.90367  0.59088  1.0000
  O   O3709     1.0  0.01438  0.89522  0.61731  1.0000
  O   O3710     1.0  0.01434  0.92678  0.58646  1.0000
  O   O3711     1.0  0.01151  0.88901  0.56888  1.0000
  C   C1238     1.0  0.07509  0.24379  0.22058  1.0000
  O   O3712     1.0  0.07505  0.25902  0.24212  1.0000
  O   O3713     1.0  0.06391  0.22312  0.22333  1.0000
  O   O3714     1.0  0.08631  0.24923  0.19629  1.0000
  C   C1239     1.0  0.03702  0.33520  0.13389  1.0000
  O   O3715     1.0  0.02536  0.34064  0.10988  1.0000
  O   O3716     1.0  0.05363  0.34987  0.14456  1.0000
  O   O3717     1.0  0.03207  0.31509  0.14722  1.0000
  C   C1240     1.0  0.11273  0.26326  0.12680  1.0000
  O   O3718     1.0  0.13659  0.25934  0.12975  1.0000
  O   O3719     1.0  0.10488  0.28389  0.11698  1.0000
  O   O3720     1.0  0.09673  0.24656  0.13367  1.0000
  C   C1241     1.0  0.06548  0.24829  0.05714  1.0000
  O   O3721     1.0  0.07798  0.23136  0.04404  1.0000
  O   O3722     1.0  0.06427  0.24872  0.08546  1.0000
  O   O3723     1.0  0.05419  0.26479  0.04191  1.0000
  C   C1242     1.0  0.09365  0.19461  0.98270  1.0000
  O   O3724     1.0  0.08001  0.19868  0.00567  1.0000
  O   O3725     1.0  0.11015  0.17740  0.98297  1.0000
  O   O3726     1.0  0.09079  0.20775  0.95946  1.0000
  C   C1243     1.0  0.77659  0.89154  0.84222  1.0000
  O   O3727     1.0  0.76305  0.87209  0.84156  1.0000
  O   O3728     1.0  0.80023  0.89055  0.83559  1.0000
  O   O3729     1.0  0.76649  0.91198  0.84951  1.0000
  C   C1244     1.0  0.46303  0.93930  0.87413  1.0000
  O   O3730     1.0  0.48557  0.93663  0.88433  1.0000
  O   O3731     1.0  0.45812  0.93355  0.84724  1.0000
  O   O3732     1.0  0.44541  0.94772  0.89082  1.0000
  C   C1245     1.0  0.71199  0.04469  0.85433  1.0000
  O   O3733     1.0  0.72131  0.02362  0.86024  1.0000
  O   O3734     1.0  0.72596  0.06380  0.85628  1.0000
  O   O3735     1.0  0.68870  0.04665  0.84647  1.0000
  C   C1246     1.0  0.62721  0.86918  0.94315  1.0000
  O   O3736     1.0  0.62813  0.87963  0.91779  1.0000
  O   O3737     1.0  0.63320  0.88112  0.96653  1.0000
  O   O3738     1.0  0.62030  0.84679  0.94513  1.0000
  C   C1247     1.0  0.67399  0.93030  0.90143  1.0000
  O   O3739     1.0  0.69547  0.93944  0.90884  1.0000
  O   O3740     1.0  0.67313  0.91137  0.88476  1.0000
  O   O3741     1.0  0.65336  0.94009  0.91069  1.0000
  C   C1248     1.0  0.49878  0.88142  0.84803  1.0000
  O   O3742     1.0  0.48494  0.88928  0.86933  1.0000
  O   O3743     1.0  0.49099  0.86370  0.83186  1.0000
  O   O3744     1.0  0.52041  0.89127  0.84290  1.0000
  C   C1249     1.0  0.59168  0.93359  0.83262  1.0000
  O   O3745     1.0  0.60152  0.91217  0.83289  1.0000
  O   O3746     1.0  0.57428  0.93915  0.85126  1.0000
  O   O3747     1.0  0.59925  0.94945  0.81371  1.0000
  C   C1250     1.0  0.72000  0.88712  0.01609  1.0000
  O   O3748     1.0  0.74362  0.88931  0.00981  1.0000
  O   O3749     1.0  0.71009  0.90048  0.03632  1.0000
  O   O3750     1.0  0.70629  0.87157  0.00215  1.0000
  C   C1251     1.0  0.74113  0.82423  0.92647  1.0000
  O   O3751     1.0  0.73383  0.84308  0.91195  1.0000
  O   O3752     1.0  0.73459  0.82158  0.95360  1.0000
  O   O3753     1.0  0.75497  0.80803  0.91386  1.0000
  C   C1252     1.0  0.77958  0.88300  0.91275  1.0000
  O   O3754     1.0  0.75663  0.87675  0.91834  1.0000
  O   O3755     1.0  0.78561  0.89057  0.88684  1.0000
  O   O3756     1.0  0.79651  0.88168  0.93307  1.0000
  C   C1253     1.0  0.72220  0.91670  0.93962  1.0000
  O   O3757     1.0  0.73055  0.91618  0.91298  1.0000
  O   O3758     1.0  0.72554  0.89827  0.95668  1.0000
  O   O3759     1.0  0.71051  0.93565  0.94920  1.0000
  C   C1254     1.0  0.70967  0.97257  0.99879  1.0000
  O   O3760     1.0  0.70857  0.98492  0.97472  1.0000
  O   O3761     1.0  0.69133  0.95835  0.00594  1.0000
  O   O3762     1.0  0.72911  0.97444  0.01571  1.0000
  C   C1255     1.0  0.78935  0.98428  0.04072  1.0000
  O   O3763     1.0  0.77606  0.97101  0.05822  1.0000
  O   O3764     1.0  0.78479  0.98413  0.01286  1.0000
  O   O3765     1.0  0.80720  0.99770  0.05109  1.0000
  C   C1256     1.0  0.63548  0.87471  0.11941  1.0000
  O   O3766     1.0  0.65451  0.86087  0.11377  1.0000
  O   O3767     1.0  0.63666  0.89011  0.14073  1.0000
  O   O3768     1.0  0.61527  0.87315  0.10372  1.0000
  C   C1257     1.0  0.56561  0.96638  0.06209  1.0000
  O   O3769     1.0  0.55534  0.98084  0.08092  1.0000
  O   O3770     1.0  0.57565  0.94630  0.07080  1.0000
  O   O3771     1.0  0.56584  0.97200  0.03456  1.0000
  C   C1258     1.0  0.62829  0.91969  0.16468  1.0000
  O   O3772     1.0  0.60958  0.92071  0.14659  1.0000
  O   O3773     1.0  0.65013  0.92775  0.15689  1.0000
  O   O3774     1.0  0.62515  0.91061  0.19057  1.0000
  C   C1259     1.0  0.72466  0.91967  0.11041  1.0000
  O   O3775     1.0  0.72928  0.90060  0.12596  1.0000
  O   O3776     1.0  0.70545  0.93313  0.11651  1.0000
  O   O3777     1.0  0.73926  0.92529  0.08876  1.0000
  C   C1260     1.0  0.99870  0.35509  0.16280  1.0000
  O   O3778     1.0  0.02088  0.36225  0.17058  1.0000
  O   O3779     1.0  0.98064  0.35453  0.18180  1.0000
  O   O3780     1.0  0.99457  0.34849  0.13601  1.0000
  C   C1261     1.0  0.72975  0.19006  0.93627  1.0000
  O   O3781     1.0  0.75314  0.19582  0.93272  1.0000
  O   O3782     1.0  0.72234  0.16816  0.93113  1.0000
  O   O3783     1.0  0.71377  0.20620  0.94496  1.0000
  C   C1262     1.0  0.68243  0.16857  0.20202  1.0000
  O   O3784     1.0  0.68553  0.15005  0.18504  1.0000
  O   O3785     1.0  0.68666  0.19016  0.19221  1.0000
  O   O3786     1.0  0.67510  0.16550  0.22881  1.0000
  C   C1263     1.0  0.64961  0.21669  0.30810  1.0000
  O   O3787     1.0  0.63134  0.21343  0.32641  1.0000
  O   O3788     1.0  0.66248  0.23656  0.30877  1.0000
  O   O3789     1.0  0.65502  0.20009  0.28912  1.0000
  C   C1264     1.0  0.59800  0.12605  0.18082  1.0000
  O   O3790     1.0  0.58395  0.13826  0.19864  1.0000
  O   O3791     1.0  0.62136  0.13193  0.17736  1.0000
  O   O3792     1.0  0.58868  0.10796  0.16645  1.0000
  C   C1265     1.0  0.71447  0.19452  0.16397  1.0000
  O   O3793     1.0  0.72404  0.20934  0.18289  1.0000
  O   O3794     1.0  0.69500  0.20086  0.14879  1.0000
  O   O3795     1.0  0.72438  0.17336  0.16023  1.0000
  C   C1266     1.0  0.59868  0.14552  0.98565  1.0000
  O   O3796     1.0  0.58153  0.14744  0.00563  1.0000
  O   O3797     1.0  0.59232  0.14209  0.95859  1.0000
  O   O3798     1.0  0.62219  0.14703  0.99273  1.0000
  C   C1267     1.0  0.63907  0.20629  0.94960  1.0000
  O   O3799     1.0  0.66078  0.20668  0.96239  1.0000
  O   O3800     1.0  0.63756  0.20915  0.92150  1.0000
  O   O3801     1.0  0.61886  0.20304  0.96490  1.0000
  C   C1268     1.0  0.66546  0.25374  0.04878  1.0000
  O   O3802     1.0  0.68873  0.25669  0.04130  1.0000
  O   O3803     1.0  0.65140  0.27238  0.05392  1.0000
  O   O3804     1.0  0.65625  0.23216  0.05112  1.0000
  C   C1269     1.0  0.80784  0.31490  0.05847  1.0000
  O   O3805     1.0  0.82874  0.30725  0.04727  1.0000
  O   O3806     1.0  0.78661  0.30669  0.04880  1.0000
  O   O3807     1.0  0.80817  0.33075  0.07934  1.0000
  C   C1270     1.0  0.72809  0.26964  0.12870  1.0000
  O   O3808     1.0  0.75162  0.26560  0.12336  1.0000
  O   O3809     1.0  0.72119  0.29004  0.14006  1.0000
  O   O3810     1.0  0.71147  0.25328  0.12269  1.0000
  C   C1271     1.0  0.91985  0.49410  0.11826  1.0000
  O   O3811     1.0  0.94254  0.48693  0.12370  1.0000
  O   O3812     1.0  0.90909  0.50965  0.13536  1.0000
  O   O3813     1.0  0.90792  0.48572  0.09572  1.0000
  C   C1272     1.0  0.00309  0.40587  0.08839  1.0000
  O   O3814     1.0  0.00290  0.41640  0.11372  1.0000
  O   O3815     1.0  0.00992  0.41778  0.06531  1.0000
  O   O3816     1.0  0.99645  0.38342  0.08614  1.0000
  C   C1273     1.0  0.92486  0.38362  0.14759  1.0000
  O   O3817     1.0  0.93888  0.37435  0.12730  1.0000
  O   O3818     1.0  0.91970  0.40650  0.14724  1.0000
  O   O3819     1.0  0.91600  0.37001  0.16823  1.0000
  C   C1274     1.0  0.86041  0.37457  0.07507  1.0000
  O   O3820     1.0  0.87255  0.38715  0.05578  1.0000
  O   O3821     1.0  0.83741  0.36812  0.07009  1.0000
  O   O3822     1.0  0.87127  0.36844  0.09934  1.0000
  C   C1275     1.0  0.92497  0.37041  0.97095  1.0000
  O   O3823     1.0  0.94186  0.38523  0.96122  1.0000
  O   O3824     1.0  0.90853  0.36130  0.95318  1.0000
  O   O3825     1.0  0.92452  0.36469  0.99845  1.0000
  C   C1276     1.0  0.94882  0.29801  0.88443  1.0000
  O   O3826     1.0  0.92550  0.30261  0.87855  1.0000
  O   O3827     1.0  0.96589  0.30127  0.86460  1.0000
  O   O3828     1.0  0.95507  0.29015  0.91014  1.0000
  C   C1277     1.0  0.84526  0.32806  0.09562  1.0000
  O   O3829     1.0  0.85758  0.33333  0.07201  1.0000
  O   O3830     1.0  0.83212  0.34453  0.10873  1.0000
  O   O3831     1.0  0.84608  0.30632  0.10612  1.0000
  C   C1278     1.0  0.90229  0.29869  0.18502  1.0000
  O   O3832     1.0  0.88903  0.28151  0.17353  1.0000
  O   O3833     1.0  0.89729  0.32103  0.17884  1.0000
  O   O3834     1.0  0.92055  0.29353  0.20269  1.0000
  C   C1279     1.0  0.92663  0.40982  0.00598  1.0000
  O   O3835     1.0  0.94401  0.39661  0.01773  1.0000
  O   O3836     1.0  0.91980  0.42980  0.01844  1.0000
  O   O3837     1.0  0.91608  0.40305  0.98177  1.0000
  C   C1280     1.0  0.12112  0.40651  0.81859  1.0000
  O   O3838     1.0  0.10996  0.42686  0.82388  1.0000
  O   O3839     1.0  0.14049  0.40016  0.83393  1.0000
  O   O3840     1.0  0.11291  0.39252  0.79796  1.0000
  C   C1281     1.0  0.02581  0.31481  0.78691  1.0000
  O   O3841     1.0  0.03189  0.29604  0.80231  1.0000
  O   O3842     1.0  0.00254  0.32151  0.78526  1.0000
  O   O3843     1.0  0.04300  0.32688  0.77315  1.0000
  C   C1282     1.0  0.11837  0.23742  0.77555  1.0000
  O   O3844     1.0  0.14154  0.24107  0.78301  1.0000
  O   O3845     1.0  0.10921  0.21573  0.77584  1.0000
  O   O3846     1.0  0.10436  0.25546  0.76779  1.0000
  C   C1283     1.0  0.10396  0.35922  0.81502  1.0000
  O   O3847     1.0  0.08116  0.36739  0.81485  1.0000
  O   O3848     1.0  0.11810  0.36255  0.83775  1.0000
  O   O3849     1.0  0.11262  0.34772  0.79247  1.0000
  C   C1284     1.0  0.99859  0.27380  0.86423  1.0000
  O   O3850     1.0  0.00688  0.29581  0.86458  1.0000
  O   O3851     1.0  0.98261  0.26671  0.88382  1.0000
  O   O3852     1.0  0.00628  0.25888  0.84429  1.0000
  C   C1285     1.0  0.03249  0.33731  0.92633  1.0000
  O   O3853     1.0  0.03559  0.35286  0.94722  1.0000
  O   O3854     1.0  0.04437  0.31688  0.92699  1.0000
  O   O3855     1.0  0.01751  0.34218  0.90477  1.0000
  C   C1286     1.0  0.03817  0.37346  0.78370  1.0000
  O   O3856     1.0  0.05771  0.37669  0.76725  1.0000
  O   O3857     1.0  0.01906  0.36145  0.77385  1.0000
  O   O3858     1.0  0.03774  0.38223  0.80999  1.0000
  C   C1287     1.0  0.01561  0.30231  0.05512  1.0000
  O   O3859     1.0  0.00371  0.28810  0.03735  1.0000
  O   O3860     1.0  0.03265  0.29364  0.07243  1.0000
  O   O3861     1.0  0.01047  0.32519  0.05558  1.0000
  C   C1288     1.0  0.40612  0.14401  0.99539  1.0000
  O   O3862     1.0  0.41562  0.13056  0.01580  1.0000
  O   O3863     1.0  0.38750  0.13612  0.97983  1.0000
  O   O3864     1.0  0.41524  0.16535  0.99054  1.0000
  C   C1289     1.0  0.28491  0.97684  0.66303  1.0000
  O   O3865     1.0  0.27493  0.97430  0.68871  1.0000
  O   O3866     1.0  0.30620  0.98794  0.66022  1.0000
  O   O3867     1.0  0.27361  0.96827  0.64016  1.0000
  C   C1290     1.0  0.20072  0.99326  0.61590  1.0000
  O   O3868     1.0  0.21699  0.00941  0.60801  1.0000
  O   O3869     1.0  0.17702  0.99681  0.61115  1.0000
  O   O3870     1.0  0.20816  0.97356  0.62854  1.0000
  C   C1291     1.0  0.16885  0.31441  0.03474  1.0000
  O   O3871     1.0  0.15880  0.33540  0.03020  1.0000
  O   O3872     1.0  0.16505  0.29696  0.01635  1.0000
  O   O3873     1.0  0.18270  0.31087  0.05767  1.0000
  C   C1292     1.0  0.19481  0.25198  0.15686  1.0000
  O   O3874     1.0  0.17125  0.25185  0.14979  1.0000
  O   O3875     1.0  0.20383  0.23503  0.17337  1.0000
  O   O3876     1.0  0.20936  0.26906  0.14742  1.0000
  C   C1293     1.0  0.22700  0.30918  0.91603  1.0000
  O   O3877     1.0  0.21671  0.32619  0.90067  1.0000
  O   O3878     1.0  0.22647  0.28706  0.90675  1.0000
  O   O3879     1.0  0.23782  0.31429  0.94067  1.0000
  C   C1294     1.0  0.20298  0.27507  0.02320  1.0000
  O   O3880     1.0  0.20957  0.29758  0.02453  1.0000
  O   O3881     1.0  0.19658  0.26563  0.99834  1.0000
  O   O3882     1.0  0.20278  0.26200  0.04673  1.0000
  C   C1295     1.0  0.50174  0.04849  0.19963  1.0000
  O   O3883     1.0  0.51669  0.04422  0.17786  1.0000
  O   O3884     1.0  0.51086  0.05466  0.22484  1.0000
  O   O3885     1.0  0.47767  0.04659  0.19619  1.0000
  C   C1296     1.0  0.43031  0.04570  0.14824  1.0000
  O   O3886     1.0  0.42093  0.04166  0.12253  1.0000
  O   O3887     1.0  0.43096  0.06751  0.15853  1.0000
  O   O3888     1.0  0.43904  0.02793  0.16366  1.0000
  C   C1297     1.0  0.48994  0.17724  0.18552  1.0000
  O   O3889     1.0  0.46939  0.17958  0.17059  1.0000
  O   O3890     1.0  0.48952  0.16666  0.21082  1.0000
  O   O3891     1.0  0.51091  0.18548  0.17515  1.0000
  C   C1298     1.0  0.45229  0.20426  0.27666  1.0000
  O   O3892     1.0  0.45166  0.22688  0.26938  1.0000
  O   O3893     1.0  0.47217  0.19535  0.28894  1.0000
  O   O3894     1.0  0.43304  0.19055  0.27166  1.0000
  C   C1299     1.0  0.45780  0.17520  0.23131  1.0000
  O   O3895     1.0  0.45995  0.15454  0.24441  1.0000
  O   O3896     1.0  0.46632  0.19462  0.24366  1.0000
  O   O3897     1.0  0.44712  0.17644  0.20587  1.0000
  C   C1300     1.0  0.19451  0.19439  0.24427  1.0000
  O   O3898     1.0  0.18828  0.20257  0.26983  1.0000
  O   O3899     1.0  0.20137  0.17206  0.24129  1.0000
  O   O3900     1.0  0.19389  0.20854  0.22168  1.0000
  C   C1301     1.0  0.32930  0.27356  0.11237  1.0000
  O   O3901     1.0  0.34783  0.28062  0.09609  1.0000
  O   O3902     1.0  0.32483  0.28432  0.13702  1.0000
  O   O3903     1.0  0.31524  0.25574  0.10400  1.0000
  C   C1302     1.0  0.23376  0.30487  0.11028  1.0000
  O   O3904     1.0  0.21464  0.29134  0.10404  1.0000
  O   O3905     1.0  0.23062  0.32454  0.12522  1.0000
  O   O3906     1.0  0.25602  0.29872  0.10158  1.0000
  C   C1303     1.0  0.42533  0.31150  0.07372  1.0000
  O   O3907     1.0  0.43578  0.29079  0.07892  1.0000
  O   O3908     1.0  0.43822  0.33123  0.07645  1.0000
  O   O3909     1.0  0.40199  0.31248  0.06579  1.0000
  C   C1304     1.0  0.02568  0.22419  0.10053  1.0000
  O   O3910     1.0  0.04609  0.22227  0.11580  1.0000
  O   O3911     1.0  0.02260  0.24246  0.08315  1.0000
  O   O3912     1.0  0.00835  0.20784  0.10264  1.0000
  C   C1305     1.0  0.03452  0.19820  0.95947  1.0000
  O   O3913     1.0  0.03792  0.19184  0.98648  1.0000
  O   O3914     1.0  0.05170  0.19377  0.94011  1.0000
  O   O3915     1.0  0.01395  0.20899  0.95182  1.0000
  C   C1306     1.0  0.46617  0.27591  0.22617  1.0000
  O   O3916     1.0  0.46173  0.28588  0.25131  1.0000
  O   O3917     1.0  0.46979  0.28927  0.20326  1.0000
  O   O3918     1.0  0.46698  0.25258  0.22394  1.0000
  C   C1307     1.0  0.28845  0.22213  0.21109  1.0000
  O   O3919     1.0  0.31277  0.22219  0.21181  1.0000
  O   O3920     1.0  0.27575  0.22196  0.23528  1.0000
  O   O3921     1.0  0.27683  0.22224  0.18617  1.0000
  C   C1308     1.0  0.45297  0.23036  0.10394  1.0000
  O   O3922     1.0  0.47528  0.22351  0.09624  1.0000
  O   O3923     1.0  0.43633  0.21444  0.11144  1.0000
  O   O3924     1.0  0.44730  0.25313  0.10414  1.0000
  C   C1309     1.0  0.36893  0.24856  0.15063  1.0000
  O   O3925     1.0  0.36357  0.25430  0.17741  1.0000
  O   O3926     1.0  0.37974  0.22811  0.14498  1.0000
  O   O3927     1.0  0.36348  0.26327  0.12950  1.0000
  C   C1310     1.0  0.31125  0.26900  0.26178  1.0000
  O   O3928     1.0  0.30873  0.25245  0.24194  1.0000
  O   O3929     1.0  0.30749  0.26379  0.28908  1.0000
  O   O3930     1.0  0.31753  0.29077  0.25432  1.0000
  C   C1311     1.0  0.11069  0.16877  0.17627  1.0000
  O   O3931     1.0  0.10744  0.17605  0.20296  1.0000
  O   O3932     1.0  0.12229  0.18245  0.15764  1.0000
  O   O3933     1.0  0.10234  0.14781  0.16821  1.0000
  C   C1312     1.0  0.21489  0.15363  0.17572  1.0000
  O   O3934     1.0  0.19585  0.13991  0.18167  1.0000
  O   O3935     1.0  0.22903  0.16163  0.19667  1.0000
  O   O3936     1.0  0.21979  0.15936  0.14882  1.0000
  C   C1313     1.0  0.29368  0.15617  0.19031  1.0000
  O   O3937     1.0  0.31075  0.17275  0.18805  1.0000
  O   O3938     1.0  0.30006  0.13357  0.19053  1.0000
  O   O3939     1.0  0.27023  0.16219  0.19236  1.0000
  C   C1314     1.0  0.38965  0.20838  0.24411  1.0000
  O   O3940     1.0  0.37346  0.19508  0.25785  1.0000
  O   O3941     1.0  0.40894  0.21697  0.25792  1.0000
  O   O3942     1.0  0.38656  0.21308  0.21656  1.0000
  C   C1315     1.0  0.00632  0.11859  0.19076  1.0000
  O   O3943     1.0  0.01419  0.14042  0.18615  1.0000
  O   O3944     1.0  0.01961  0.10034  0.18206  1.0000
  O   O3945     1.0  0.98516  0.11501  0.20407  1.0000
  C   C1316     1.0  0.07552  0.13523  0.25389  1.0000
  O   O3946     1.0  0.07010  0.15001  0.27496  1.0000
  O   O3947     1.0  0.07958  0.14345  0.22775  1.0000
  O   O3948     1.0  0.07689  0.11223  0.25896  1.0000
  C   C1317     1.0  0.23036  0.20433  0.10244  1.0000
  O   O3949     1.0  0.23913  0.22034  0.12044  1.0000
  O   O3950     1.0  0.22739  0.18218  0.11097  1.0000
  O   O3951     1.0  0.22457  0.21047  0.07591  1.0000
  C   C1318     1.0  0.31639  0.22722  0.13832  1.0000
  O   O3952     1.0  0.29539  0.23843  0.14288  1.0000
  O   O3953     1.0  0.33737  0.23684  0.14671  1.0000
  O   O3954     1.0  0.31641  0.20639  0.12537  1.0000
  C   C1319     1.0  0.81395  0.02758  0.01071  1.0000
  O   O3955     1.0  0.79069  0.02461  0.01821  1.0000
  O   O3956     1.0  0.82490  0.04817  0.01516  1.0000
  O   O3957     1.0  0.82627  0.00996  0.99875  1.0000
  C   C1320     1.0  0.65170  0.98075  0.44190  1.0000
  O   O3958     1.0  0.67096  0.99340  0.43380  1.0000
  O   O3959     1.0  0.63663  0.98900  0.46180  1.0000
  O   O3960     1.0  0.64751  0.95984  0.43010  1.0000
  C   C1321     1.0  0.41146  0.29637  0.95427  1.0000
  O   O3961     1.0  0.43474  0.30297  0.95227  1.0000
  O   O3962     1.0  0.39476  0.30583  0.93711  1.0000
  O   O3963     1.0  0.40487  0.28031  0.97343  1.0000
  C   C1322     1.0  0.31958  0.33343  0.96043  1.0000
  O   O3964     1.0  0.31370  0.33802  0.93347  1.0000
  O   O3965     1.0  0.30590  0.31875  0.97573  1.0000
  O   O3966     1.0  0.33913  0.34352  0.97208  1.0000
  C   C1323     1.0  0.41890  0.36499  0.96404  1.0000
  O   O3967     1.0  0.40202  0.38133  0.96906  1.0000
  O   O3968     1.0  0.44135  0.36748  0.97457  1.0000
  O   O3969     1.0  0.41334  0.34616  0.94849  1.0000
  C   C1324     1.0  0.36274  0.36213  0.02691  1.0000
  O   O3970     1.0  0.37392  0.37100  0.04970  1.0000
  O   O3971     1.0  0.36317  0.33905  0.02216  1.0000
  O   O3972     1.0  0.35114  0.37634  0.00887  1.0000
  C   C1325     1.0  0.30145  0.15324  0.46956  1.0000
  O   O3973     1.0  0.28406  0.15119  0.44987  1.0000
  O   O3974     1.0  0.29839  0.14356  0.49514  1.0000
  O   O3975     1.0  0.32189  0.16497  0.46367  1.0000
  C   C1326     1.0  0.47298  0.17741  0.48097  1.0000
  O   O3976     1.0  0.45449  0.17064  0.46446  1.0000
  O   O3977     1.0  0.46859  0.18596  0.50687  1.0000
  O   O3978     1.0  0.49586  0.17562  0.47158  1.0000
  C   C1327     1.0  0.38529  0.19582  0.55389  1.0000
  O   O3979     1.0  0.40005  0.18033  0.54138  1.0000
  O   O3980     1.0  0.39459  0.21483  0.56641  1.0000
  O   O3981     1.0  0.36123  0.19230  0.55388  1.0000
  C   C1328     1.0  0.75873  0.21691  0.06928  1.0000
  O   O3982     1.0  0.74482  0.22477  0.04804  1.0000
  O   O3983     1.0  0.77937  0.20542  0.06362  1.0000
  O   O3984     1.0  0.75200  0.22054  0.09618  1.0000
  C   C1329     1.0  0.70358  0.02322  0.13137  1.0000
  O   O3985     1.0  0.69069  0.00537  0.14193  1.0000
  O   O3986     1.0  0.70784  0.02449  0.10349  1.0000
  O   O3987     1.0  0.71221  0.03980  0.14869  1.0000
  C   C1330     1.0  0.60636  0.03592  0.02179  1.0000
  O   O3988     1.0  0.60623  0.02056  0.00038  1.0000
  O   O3989     1.0  0.58561  0.04608  0.03005  1.0000
  O   O3990     1.0  0.62723  0.04112  0.03494  1.0000
  C   C1331     1.0  0.67924  0.09594  0.97152  1.0000
  O   O3991     1.0  0.68569  0.11825  0.96735  1.0000
  O   O3992     1.0  0.66964  0.08351  0.95024  1.0000
  O   O3993     1.0  0.68239  0.08605  0.99697  1.0000
  C   C1332     1.0  0.80005  0.12670  0.00169  1.0000
  O   O3994     1.0  0.81485  0.13368  0.02256  1.0000
  O   O3995     1.0  0.79064  0.10511  0.00207  1.0000
  O   O3996     1.0  0.79466  0.14132  0.98044  1.0000
  C   C1333     1.0  0.83704  0.22216  0.93637  1.0000
  O   O3997     1.0  0.82180  0.20463  0.93020  1.0000
  O   O3998     1.0  0.84718  0.23464  0.91548  1.0000
  O   O3999     1.0  0.84214  0.22721  0.96342  1.0000
  C   C1334     1.0  0.76499  0.09206  0.06345  1.0000
  O   O4000     1.0  0.76824  0.09726  0.09084  1.0000
  O   O4001     1.0  0.78418  0.09039  0.04613  1.0000
  O   O4002     1.0  0.74254  0.08853  0.05337  1.0000
  C   C1335     1.0  0.28101  0.95410  0.03922  1.0000
  O   O4003     1.0  0.28498  0.96333  0.06487  1.0000
  O   O4004     1.0  0.27416  0.96787  0.01771  1.0000
  O   O4005     1.0  0.28389  0.93110  0.03507  1.0000
  C   C1336     1.0  0.38252  0.00980  0.06110  1.0000
  O   O4006     1.0  0.39724  0.02834  0.06342  1.0000
  O   O4007     1.0  0.37161  0.00107  0.08415  1.0000
  O   O4008     1.0  0.37870  0.99998  0.03574  1.0000
  C   C1337     1.0  0.40700  0.16568  0.15992  1.0000
  O   O4009     1.0  0.39677  0.14468  0.15601  1.0000
  O   O4010     1.0  0.43101  0.16833  0.15660  1.0000
  O   O4011     1.0  0.39322  0.18403  0.16715  1.0000
  C   C1338     1.0  0.32639  0.08462  0.16743  1.0000
  O   O4012     1.0  0.30557  0.09641  0.17084  1.0000
  O   O4013     1.0  0.34421  0.08673  0.18658  1.0000
  O   O4014     1.0  0.32939  0.07072  0.14487  1.0000
  C   C1339     1.0  0.35326  0.22087  0.06428  1.0000
  O   O4015     1.0  0.35862  0.22433  0.03693  1.0000
  O   O4016     1.0  0.36225  0.23525  0.08406  1.0000
  O   O4017     1.0  0.33890  0.20303  0.07185  1.0000
  C   C1340     1.0  0.30176  0.20618  0.99978  1.0000
  O   O4018     1.0  0.30175  0.19388  0.02392  1.0000
  O   O4019     1.0  0.28083  0.21431  0.98918  1.0000
  O   O4020     1.0  0.32270  0.21035  0.98624  1.0000
  C   C1341     1.0  0.34189  0.05535  0.09947  1.0000
  O   O4021     1.0  0.34483  0.07517  0.11417  1.0000
  O   O4022     1.0  0.31966  0.04881  0.09111  1.0000
  O   O4023     1.0  0.36118  0.04207  0.09313  1.0000
  C   C1342     1.0  0.33140  0.12719  0.13861  1.0000
  O   O4024     1.0  0.34014  0.10590  0.14456  1.0000
  O   O4025     1.0  0.32956  0.14327  0.15911  1.0000
  O   O4026     1.0  0.32450  0.13240  0.11215  1.0000
  C   C1343     1.0  0.39116  0.91771  0.16793  1.0000
  O   O4027     1.0  0.41382  0.92079  0.17756  1.0000
  O   O4028     1.0  0.37886  0.89828  0.17461  1.0000
  O   O4029     1.0  0.38080  0.93407  0.15162  1.0000
  C   C1344     1.0  0.27036  0.11605  0.33554  1.0000
  O   O4030     1.0  0.24796  0.12292  0.32823  1.0000
  O   O4031     1.0  0.28920  0.13061  0.33220  1.0000
  O   O4032     1.0  0.27392  0.09462  0.34619  1.0000
  C   C1345     1.0  0.29284  0.98959  0.29843  1.0000
  O   O4033     1.0  0.31189  0.99469  0.28190  1.0000
  O   O4034     1.0  0.29215  0.99734  0.32518  1.0000
  O   O4035     1.0  0.27449  0.97674  0.28821  1.0000
  C   C1346     1.0  0.49433  0.99466  0.29676  1.0000
  O   O4036     1.0  0.49249  0.00584  0.27193  1.0000
  O   O4037     1.0  0.47850  0.97774  0.30338  1.0000
  O   O4038     1.0  0.51201  0.00040  0.31497  1.0000
  C   C1347     1.0  0.40998  0.96997  0.26559  1.0000
  O   O4039     1.0  0.41792  0.95429  0.24667  1.0000
  O   O4040     1.0  0.40738  0.96386  0.29280  1.0000
  O   O4041     1.0  0.40464  0.99176  0.25730  1.0000
  C   C1348     1.0  0.34696  0.87127  0.23771  1.0000
  O   O4042     1.0  0.33300  0.85255  0.23269  1.0000
  O   O4043     1.0  0.36129  0.87976  0.21722  1.0000
  O   O4044     1.0  0.34660  0.88150  0.26322  1.0000
  C   C1349     1.0  0.42259  0.86722  0.11396  1.0000
  O   O4045     1.0  0.41350  0.84707  0.10414  1.0000
  O   O4046     1.0  0.44094  0.87769  0.10031  1.0000
  O   O4047     1.0  0.41334  0.87690  0.13743  1.0000
  C   C1350     1.0  0.33149  0.16925  0.40009  1.0000
  O   O4048     1.0  0.31643  0.17243  0.42203  1.0000
  O   O4049     1.0  0.34473  0.18716  0.39030  1.0000
  O   O4050     1.0  0.33331  0.14817  0.38794  1.0000
  C   C1351     1.0  0.41382  0.98929  0.11836  1.0000
  O   O4051     1.0  0.42993  0.00228  0.13264  1.0000
  O   O4052     1.0  0.41303  0.99031  0.09004  1.0000
  O   O4053     1.0  0.39849  0.97527  0.13240  1.0000
  C   C1352     1.0  0.38047  0.96666  0.20840  1.0000
  O   O4054     1.0  0.38059  0.97812  0.23313  1.0000
  O   O4055     1.0  0.35982  0.96471  0.19359  1.0000
  O   O4056     1.0  0.40101  0.95714  0.19848  1.0000
  C   C1353     1.0  0.33202  0.12538  0.26273  1.0000
  O   O4057     1.0  0.33866  0.13649  0.28647  1.0000
  O   O4058     1.0  0.32090  0.13716  0.24192  1.0000
  O   O4059     1.0  0.33650  0.10249  0.25980  1.0000
  C   C1354     1.0  0.32579  0.05014  0.25203  1.0000
  O   O4060     1.0  0.32227  0.06583  0.27268  1.0000
  O   O4061     1.0  0.32761  0.05722  0.22508  1.0000
  O   O4062     1.0  0.32749  0.02737  0.25833  1.0000
  C   C1355     1.0  0.18498  0.00148  0.20158  1.0000
  O   O4063     1.0  0.17308  0.00895  0.22461  1.0000
  O   O4064     1.0  0.20781  0.00855  0.19677  1.0000
  O   O4065     1.0  0.17405  0.98694  0.18336  1.0000
  C   C1356     1.0  0.52131  0.18810  0.65575  1.0000
  O   O4066     1.0  0.52462  0.20071  0.63217  1.0000
  O   O4067     1.0  0.50198  0.17400  0.65805  1.0000
  O   O4068     1.0  0.53733  0.18958  0.67703  1.0000
  C   C1357     1.0  0.17782  0.03414  0.99286  1.0000
  O   O4069     1.0  0.17540  0.01833  0.97213  1.0000
  O   O4070     1.0  0.16117  0.03541  0.01349  1.0000
  O   O4071     1.0  0.19689  0.04868  0.99296  1.0000
  C   C1358     1.0  0.78917  0.22986  0.89937  1.0000
  O   O4072     1.0  0.80417  0.24751  0.89294  1.0000
  O   O4073     1.0  0.78596  0.22358  0.92644  1.0000
  O   O4074     1.0  0.77738  0.21848  0.87874  1.0000
  C   C1359     1.0  0.63604  0.13182  0.67269  1.0000
  O   O4075     1.0  0.65566  0.13321  0.65600  1.0000
  O   O4076     1.0  0.61680  0.11917  0.66451  1.0000
  O   O4077     1.0  0.63566  0.14308  0.69756  1.0000
  C   C1360     1.0  0.49956  0.21040  0.83896  1.0000
  O   O4078     1.0  0.50368  0.22168  0.81458  1.0000
  O   O4079     1.0  0.51044  0.21755  0.86281  1.0000
  O   O4080     1.0  0.48456  0.19197  0.83950  1.0000
  C   C1361     1.0  0.54222  0.21046  0.71266  1.0000
  O   O4081     1.0  0.56455  0.20231  0.71811  1.0000
  O   O4082     1.0  0.53910  0.22742  0.69344  1.0000
  O   O4083     1.0  0.52301  0.20165  0.72642  1.0000
  C   C1362     1.0  0.79097  0.04982  0.67217  1.0000
  O   O4084     1.0  0.76710  0.05436  0.67230  1.0000
  O   O4085     1.0  0.79939  0.03065  0.65917  1.0000
  O   O4086     1.0  0.80642  0.06445  0.68505  1.0000
  C   C1363     1.0  0.84786  0.98771  0.60401  1.0000
  O   O4087     1.0  0.83270  0.97863  0.62328  1.0000
  O   O4088     1.0  0.84462  0.98308  0.57646  1.0000
  O   O4089     1.0  0.86627  0.00141  0.61229  1.0000
  C   C1364     1.0  0.85144  0.15035  0.70531  1.0000
  O   O4090     1.0  0.84962  0.14446  0.67794  1.0000
  O   O4091     1.0  0.87286  0.15721  0.71590  1.0000
  O   O4092     1.0  0.83185  0.14938  0.72209  1.0000
  C   C1365     1.0  0.81451  0.08147  0.62209  1.0000
  O   O4093     1.0  0.82861  0.06763  0.60618  1.0000
  O   O4094     1.0  0.80327  0.07278  0.64494  1.0000
  O   O4095     1.0  0.81165  0.10401  0.61516  1.0000
  C   C1366     1.0  0.78840  0.15985  0.67330  1.0000
  O   O4096     1.0  0.81048  0.16752  0.66583  1.0000
  O   O4097     1.0  0.76948  0.16299  0.65588  1.0000
  O   O4098     1.0  0.78524  0.14904  0.69819  1.0000
  C   C1367     1.0  0.56377  0.09491  0.54454  1.0000
  O   O4099     1.0  0.57134  0.11269  0.56075  1.0000
  O   O4100     1.0  0.55412  0.09915  0.51902  1.0000
  O   O4101     1.0  0.56586  0.07289  0.55386  1.0000
  C   C1368     1.0  0.80610  0.12215  0.84293  1.0000
  O   O4102     1.0  0.78825  0.13696  0.83587  1.0000
  O   O4103     1.0  0.82913  0.12710  0.83600  1.0000
  O   O4104     1.0  0.80092  0.10240  0.85691  1.0000
  C   C1369     1.0  0.82884  0.09239  0.80040  1.0000
  O   O4105     1.0  0.83048  0.11407  0.78986  1.0000
  O   O4106     1.0  0.83697  0.08784  0.82656  1.0000
  O   O4107     1.0  0.81907  0.07526  0.78478  1.0000
  C   C1370     1.0  0.74715  0.20016  0.75683  1.0000
  O   O4108     1.0  0.73260  0.21869  0.75322  1.0000
  O   O4109     1.0  0.73798  0.17851  0.75541  1.0000
  O   O4110     1.0  0.77087  0.20329  0.76187  1.0000
  C   C1371     1.0  0.40570  0.03516  0.70423  1.0000
  O   O4111     1.0  0.38766  0.04702  0.69174  1.0000
  O   O4112     1.0  0.41170  0.01381  0.69491  1.0000
  O   O4113     1.0  0.41774  0.04464  0.72604  1.0000
  C   C1372     1.0  0.44794  0.99531  0.96049  1.0000
  O   O4114     1.0  0.47014  0.99002  0.95081  1.0000
  O   O4115     1.0  0.42822  0.98859  0.94600  1.0000
  O   O4116     1.0  0.44546  0.00733  0.98466  1.0000
  C   C1373     1.0  0.53558  0.02910  0.95414  1.0000
  O   O4117     1.0  0.52447  0.00850  0.95044  1.0000
  O   O4118     1.0  0.55974  0.02994  0.95739  1.0000
  O   O4119     1.0  0.52254  0.04886  0.95459  1.0000
  C   C1374     1.0  0.69064  0.87044  0.52646  1.0000
  O   O4120     1.0  0.70817  0.86319  0.50886  1.0000
  O   O4121     1.0  0.67222  0.85613  0.53303  1.0000
  O   O4122     1.0  0.69153  0.89200  0.53748  1.0000
  C   C1375     1.0  0.67565  0.98902  0.49660  1.0000
  O   O4123     1.0  0.69476  0.98912  0.51416  1.0000
  O   O4124     1.0  0.66131  0.97014  0.49505  1.0000
  O   O4125     1.0  0.67087  0.00780  0.48059  1.0000
  C   C1376     1.0  0.38734  0.98879  0.73215  1.0000
  O   O4126     1.0  0.39731  0.96743  0.73240  1.0000
  O   O4127     1.0  0.36318  0.99116  0.73047  1.0000
  O   O4128     1.0  0.40153  0.00777  0.73358  1.0000
  C   C1377     1.0  0.60856  0.88060  0.59319  1.0000
  O   O4129     1.0  0.61098  0.85739  0.59069  1.0000
  O   O4130     1.0  0.60259  0.89350  0.57056  1.0000
  O   O4131     1.0  0.61210  0.89091  0.61832  1.0000
  C   C1378     1.0  0.65213  0.85178  0.48669  1.0000
  O   O4132     1.0  0.64809  0.87366  0.49562  1.0000
  O   O4133     1.0  0.66910  0.84763  0.46699  1.0000
  O   O4134     1.0  0.63921  0.83405  0.49747  1.0000
  C   C1379     1.0  0.59894  0.92525  0.55752  1.0000
  O   O4135     1.0  0.57558  0.92627  0.54968  1.0000
  O   O4136     1.0  0.61651  0.92685  0.53799  1.0000
  O   O4137     1.0  0.60473  0.92263  0.58489  1.0000
  C   C1380     1.0  0.41141  0.98181  0.44331  1.0000
  O   O4138     1.0  0.40828  0.97726  0.47089  1.0000
  O   O4139     1.0  0.41445  0.96421  0.42493  1.0000
  O   O4140     1.0  0.41150  0.00396  0.43410  1.0000
  C   C1381     1.0  0.35839  0.11729  0.89884  1.0000
  O   O4141     1.0  0.34870  0.11776  0.92485  1.0000
  O   O4142     1.0  0.37790  0.10398  0.89360  1.0000
  O   O4143     1.0  0.34857  0.13013  0.87807  1.0000
  C   C1382     1.0  0.47713  0.14832  0.88388  1.0000
  O   O4144     1.0  0.49967  0.14572  0.89410  1.0000
  O   O4145     1.0  0.47115  0.16777  0.86971  1.0000
  O   O4146     1.0  0.46058  0.13147  0.88783  1.0000
  C   C1383     1.0  0.46430  0.03934  0.09821  1.0000
  O   O4147     1.0  0.46692  0.02401  0.11944  1.0000
  O   O4148     1.0  0.47683  0.03649  0.07414  1.0000
  O   O4149     1.0  0.44915  0.05751  0.10106  1.0000
  C   C1384     1.0  0.49987  0.08638  0.98928  1.0000
  O   O4150     1.0  0.52174  0.09269  0.97948  1.0000
  O   O4151     1.0  0.48387  0.07599  0.97200  1.0000
  O   O4152     1.0  0.49400  0.09045  0.01636  1.0000
  C   C1385     1.0  0.55063  0.12192  0.90644  1.0000
  O   O4153     1.0  0.56586  0.13930  0.91324  1.0000
  O   O4154     1.0  0.54424  0.10612  0.92600  1.0000
  O   O4155     1.0  0.54179  0.12034  0.88008  1.0000
  C   C1386     1.0  0.59285  0.21694  0.86722  1.0000
  O   O4156     1.0  0.61340  0.22076  0.88169  1.0000
  O   O4157     1.0  0.57342  0.23056  0.87163  1.0000
  O   O4158     1.0  0.59173  0.19950  0.84834  1.0000
  C   C1387     1.0  0.53349  0.12848  0.78209  1.0000
  O   O4159     1.0  0.54010  0.12472  0.80901  1.0000
  O   O4160     1.0  0.52110  0.11207  0.76791  1.0000
  O   O4161     1.0  0.53927  0.14865  0.76935  1.0000
  C   C1388     1.0  0.22588  0.09258  0.11798  1.0000
  O   O4162     1.0  0.23615  0.08383  0.14141  1.0000
  O   O4163     1.0  0.21626  0.11409  0.11833  1.0000
  O   O4164     1.0  0.22523  0.07983  0.09420  1.0000
  C   C1389     1.0  0.30820  0.04485  0.95522  1.0000
  O   O4165     1.0  0.28809  0.05440  0.96623  1.0000
  O   O4166     1.0  0.31799  0.02582  0.96718  1.0000
  O   O4167     1.0  0.31852  0.05433  0.93224  1.0000
  C   C1390     1.0  0.41202  0.10750  0.93016  1.0000
  O   O4168     1.0  0.43241  0.12024  0.92883  1.0000
  O   O4169     1.0  0.40995  0.08795  0.91475  1.0000
  O   O4170     1.0  0.39370  0.11432  0.94690  1.0000
  C   C1391     1.0  0.42053  0.04072  0.98994  1.0000
  O   O4171     1.0  0.44363  0.04741  0.99365  1.0000
  O   O4172     1.0  0.41453  0.02733  0.96775  1.0000
  O   O4173     1.0  0.40343  0.04742  0.00842  1.0000
  C   C1392     1.0  0.39524  0.20698  0.93472  1.0000
  O   O4174     1.0  0.37162  0.20516  0.94117  1.0000
  O   O4175     1.0  0.41204  0.20478  0.95506  1.0000
  O   O4176     1.0  0.40206  0.21100  0.90793  1.0000
  C   C1393     1.0  0.38339  0.25870  0.83827  1.0000
  O   O4177     1.0  0.39300  0.27613  0.82301  1.0000
  O   O4178     1.0  0.36280  0.26215  0.85279  1.0000
  O   O4179     1.0  0.39437  0.23781  0.83901  1.0000
  C   C1394     1.0  0.46503  0.05429  0.57373  1.0000
  O   O4180     1.0  0.45257  0.04618  0.55144  1.0000
  O   O4181     1.0  0.45332  0.06003  0.59761  1.0000
  O   O4182     1.0  0.48920  0.05666  0.57215  1.0000
  C   C1395     1.0  0.39695  0.91185  0.66180  1.0000
  O   O4183     1.0  0.40921  0.93138  0.66818  1.0000
  O   O4184     1.0  0.39858  0.89310  0.67869  1.0000
  O   O4185     1.0  0.38306  0.91107  0.63853  1.0000
  C   C1396     1.0  0.41799  0.00522  0.57038  1.0000
  O   O4186     1.0  0.43618  0.01721  0.58236  1.0000
  O   O4187     1.0  0.39908  0.01662  0.55908  1.0000
  O   O4188     1.0  0.41871  0.98182  0.56969  1.0000
  C   C1397     1.0  0.48465  0.84826  0.67675  1.0000
  O   O4189     1.0  0.49123  0.84861  0.64945  1.0000
  O   O4190     1.0  0.46109  0.84891  0.68378  1.0000
  O   O4191     1.0  0.50163  0.84726  0.69703  1.0000
  C   C1398     1.0  0.57412  0.09709  0.85924  1.0000
  O   O4192     1.0  0.58580  0.11604  0.86885  1.0000
  O   O4193     1.0  0.56106  0.08391  0.87707  1.0000
  O   O4194     1.0  0.57550  0.09132  0.83180  1.0000
  C   C1399     1.0  0.49772  0.94693  0.54525  1.0000
  O   O4195     1.0  0.49771  0.92473  0.53624  1.0000
  O   O4196     1.0  0.47965  0.96135  0.53778  1.0000
  O   O4197     1.0  0.51580  0.95471  0.56173  1.0000
  C   C1400     1.0  0.61205  0.02198  0.66715  1.0000
  O   O4198     1.0  0.60498  0.03475  0.68945  1.0000
  O   O4199     1.0  0.59554  0.01406  0.64865  1.0000
  O   O4200     1.0  0.63563  0.01713  0.66335  1.0000
  C   C1401     1.0  0.64706  0.00824  0.58565  1.0000
  O   O4201     1.0  0.65760  0.98912  0.57483  1.0000
  O   O4202     1.0  0.62462  0.01427  0.57748  1.0000
  O   O4203     1.0  0.65896  0.02133  0.60464  1.0000
  C   C1402     1.0  0.50461  0.95619  0.84186  1.0000
  O   O4204     1.0  0.49674  0.94398  0.81946  1.0000
  O   O4205     1.0  0.52168  0.94718  0.85887  1.0000
  O   O4206     1.0  0.49541  0.97740  0.84725  1.0000
  C   C1403     1.0  0.58476  0.00325  0.90660  1.0000
  O   O4207     1.0  0.60227  0.01775  0.91549  1.0000
  O   O4208     1.0  0.58092  0.00025  0.87883  1.0000
  O   O4209     1.0  0.57109  0.99175  0.92548  1.0000
  C   C1404     1.0  0.47017  0.07318  0.87264  1.0000
  O   O4210     1.0  0.48690  0.05748  0.86474  1.0000
  O   O4211     1.0  0.47239  0.08431  0.89746  1.0000
  O   O4212     1.0  0.45123  0.07775  0.85572  1.0000
  C   C1405     1.0  0.57476  0.89907  0.65360  1.0000
  O   O4213     1.0  0.55880  0.88324  0.64408  1.0000
  O   O4214     1.0  0.59827  0.89340  0.65614  1.0000
  O   O4215     1.0  0.56721  0.92057  0.66058  1.0000
  C   C1406     1.0  0.65936  0.92603  0.70991  1.0000
  O   O4216     1.0  0.68171  0.92105  0.70044  1.0000
  O   O4217     1.0  0.64526  0.94102  0.69560  1.0000
  O   O4218     1.0  0.65112  0.91602  0.73369  1.0000
  C   C1407     1.0  0.58179  0.88217  0.72050  1.0000
  O   O4219     1.0  0.57800  0.88704  0.69311  1.0000
  O   O4220     1.0  0.56399  0.87268  0.73606  1.0000
  O   O4221     1.0  0.60338  0.88679  0.73233  1.0000
  C   C1408     1.0  0.56530  0.98957  0.72374  1.0000
  O   O4222     1.0  0.57449  0.00831  0.71053  1.0000
  O   O4223     1.0  0.54617  0.97833  0.71270  1.0000
  O   O4224     1.0  0.57524  0.98207  0.74799  1.0000
  C   C1409     1.0  0.49190  0.94694  0.67140  1.0000
  O   O4225     1.0  0.49213  0.94168  0.64376  1.0000
  O   O4226     1.0  0.47345  0.93980  0.68774  1.0000
  O   O4227     1.0  0.51012  0.95934  0.68270  1.0000
  C   C1410     1.0  0.52022  0.06762  0.70579  1.0000
  O   O4228     1.0  0.52105  0.08771  0.69126  1.0000
  O   O4229     1.0  0.51734  0.04732  0.69206  1.0000
  O   O4230     1.0  0.52227  0.06783  0.73405  1.0000
  C   C1411     1.0  0.48751  0.07694  0.50126  1.0000
  O   O4231     1.0  0.50636  0.06503  0.51191  1.0000
  O   O4232     1.0  0.46647  0.07778  0.51547  1.0000
  O   O4233     1.0  0.48970  0.08801  0.47640  1.0000
  C   C1412     1.0  0.62249  0.07804  0.58689  1.0000
  O   O4234     1.0  0.61974  0.05512  0.58203  1.0000
  O   O4235     1.0  0.64477  0.08705  0.59019  1.0000
  O   O4236     1.0  0.60296  0.09195  0.58845  1.0000
  C   C1413     1.0  0.60304  0.01530  0.47319  1.0000
  O   O4237     1.0  0.60115  0.02598  0.44804  1.0000
  O   O4238     1.0  0.59193  0.99478  0.47754  1.0000
  O   O4239     1.0  0.61604  0.02515  0.49399  1.0000
  C   C1414     1.0  0.57041  0.96814  0.53413  1.0000
  O   O4240     1.0  0.55422  0.95089  0.53071  1.0000
  O   O4241     1.0  0.56308  0.99046  0.53368  1.0000
  O   O4242     1.0  0.59393  0.96306  0.53800  1.0000
  C   C1415     1.0  0.54457  0.03293  0.57220  1.0000
  O   O4243     1.0  0.53019  0.01895  0.58759  1.0000
  O   O4244     1.0  0.56806  0.02754  0.56869  1.0000
  O   O4245     1.0  0.53546  0.05230  0.56032  1.0000
  C   C1416     1.0  0.67618  0.12985  0.58143  1.0000
  O   O4246     1.0  0.67335  0.15308  0.58002  1.0000
  O   O4247     1.0  0.66728  0.11619  0.56086  1.0000
  O   O4248     1.0  0.68791  0.12028  0.60341  1.0000
  C   C1417     1.0  0.74479  0.13630  0.73928  1.0000
  O   O4249     1.0  0.75582  0.13541  0.76454  1.0000
  O   O4250     1.0  0.72179  0.14378  0.73739  1.0000
  O   O4251     1.0  0.75676  0.12970  0.71591  1.0000
  C   C1418     1.0  0.65073  0.21632  0.61792  1.0000
  O   O4252     1.0  0.65601  0.22162  0.59099  1.0000
  O   O4253     1.0  0.65154  0.19405  0.62664  1.0000
  O   O4254     1.0  0.64464  0.23328  0.63614  1.0000
  C   C1419     1.0  0.73522  0.15047  0.62536  1.0000
  O   O4255     1.0  0.75001  0.15202  0.60292  1.0000
  O   O4256     1.0  0.72013  0.13222  0.62793  1.0000
  O   O4257     1.0  0.73551  0.16717  0.64524  1.0000
  C   C1420     1.0  0.67477  0.09560  0.68090  1.0000
  O   O4258     1.0  0.66866  0.11333  0.69800  1.0000
  O   O4259     1.0  0.66215  0.07559  0.68169  1.0000
  O   O4260     1.0  0.69350  0.09787  0.66301  1.0000
  C   C1421     1.0  0.57167  0.11107  0.69988  1.0000
  O   O4261     1.0  0.57245  0.09836  0.67608  1.0000
  O   O4262     1.0  0.55069  0.12065  0.70833  1.0000
  O   O4263     1.0  0.59187  0.11420  0.71523  1.0000
  C   C1422     1.0  0.72985  0.17250  0.87887  1.0000
  O   O4264     1.0  0.70582  0.17602  0.88012  1.0000
  O   O4265     1.0  0.74498  0.19076  0.87691  1.0000
  O   O4266     1.0  0.73875  0.15071  0.87958  1.0000
  C   C1423     1.0  0.63857  0.06853  0.73610  1.0000
  O   O4267     1.0  0.64431  0.09035  0.72830  1.0000
  O   O4268     1.0  0.63826  0.06274  0.76358  1.0000
  O   O4269     1.0  0.63314  0.05250  0.71642  1.0000
  C   C1424     1.0  0.68720  0.13931  0.88665  1.0000
  O   O4270     1.0  0.69705  0.14040  0.86075  1.0000
  O   O4271     1.0  0.66333  0.14288  0.89007  1.0000
  O   O4272     1.0  0.70122  0.13464  0.90913  1.0000
  C   C1425     1.0  0.11939  0.62494  0.09843  1.0000
  O   O4273     1.0  0.14074  0.61533  0.09139  1.0000
  O   O4274     1.0  0.10788  0.61802  0.12197  1.0000
  O   O4275     1.0  0.10955  0.64146  0.08193  1.0000
  C   C1426     1.0  0.15310  0.77419  0.21819  1.0000
  O   O4276     1.0  0.15011  0.75811  0.23851  1.0000
  O   O4277     1.0  0.17300  0.78766  0.21802  1.0000
  O   O4278     1.0  0.13619  0.77680  0.19804  1.0000
  C   C1427     1.0  0.03557  0.63915  0.28112  1.0000
  O   O4279     1.0  0.01217  0.63412  0.28596  1.0000
  O   O4280     1.0  0.04930  0.64809  0.30188  1.0000
  O   O4281     1.0  0.04523  0.63524  0.25552  1.0000
  C   C1428     1.0  0.12302  0.72487  0.28831  1.0000
  O   O4282     1.0  0.12374  0.74819  0.28587  1.0000
  O   O4283     1.0  0.14038  0.71365  0.30281  1.0000
  O   O4284     1.0  0.10494  0.71277  0.27625  1.0000
  C   C1429     1.0  0.07636  0.60975  0.24540  1.0000
  O   O4285     1.0  0.08680  0.62882  0.25648  1.0000
  O   O4286     1.0  0.06549  0.59417  0.26237  1.0000
  O   O4287     1.0  0.07679  0.60626  0.21736  1.0000
  C   C1430     1.0  0.02790  0.54782  0.11672  1.0000
  O   O4288     1.0  0.04974  0.55128  0.12850  1.0000
  O   O4289     1.0  0.02544  0.54839  0.08851  1.0000
  O   O4290     1.0  0.00851  0.54379  0.13315  1.0000
  C   C1431     1.0  0.12720  0.54735  0.16181  1.0000
  O   O4291     1.0  0.14695  0.54780  0.17837  1.0000
  O   O4292     1.0  0.12109  0.56626  0.14667  1.0000
  O   O4293     1.0  0.11356  0.52800  0.16039  1.0000
  C   C1432     1.0  0.21544  0.62825  0.26324  1.0000
  O   O4294     1.0  0.22070  0.62537  0.29071  1.0000
  O   O4295     1.0  0.19228  0.62785  0.25456  1.0000
  O   O4296     1.0  0.23334  0.63153  0.24445  1.0000
  C   C1433     1.0  0.17166  0.65597  0.19485  1.0000
  O   O4297     1.0  0.17140  0.66046  0.16701  1.0000
  O   O4298     1.0  0.15075  0.65251  0.20874  1.0000
  O   O4299     1.0  0.19282  0.65495  0.20879  1.0000
  C   C1434     1.0  0.10916  0.75757  0.20091  1.0000
  O   O4300     1.0  0.10633  0.77248  0.22253  1.0000
  O   O4301     1.0  0.10521  0.76477  0.17432  1.0000
  O   O4302     1.0  0.11594  0.73546  0.20588  1.0000
  C   C1435     1.0  0.19149  0.67857  0.30219  1.0000
  O   O4303     1.0  0.16841  0.68573  0.29988  1.0000
  O   O4304     1.0  0.20172  0.66620  0.28126  1.0000
  O   O4305     1.0  0.20435  0.68378  0.32543  1.0000
  C   C1436     1.0  0.27337  0.68212  0.17243  1.0000
  O   O4306     1.0  0.26069  0.69896  0.18547  1.0000
  O   O4307     1.0  0.27329  0.66032  0.18279  1.0000
  O   O4308     1.0  0.28613  0.68708  0.14904  1.0000
  C   C1437     1.0  0.20451  0.69135  0.17688  1.0000
  O   O4309     1.0  0.20458  0.69698  0.20441  1.0000
  O   O4310     1.0  0.18794  0.70075  0.15951  1.0000
  O   O4311     1.0  0.22101  0.67633  0.16672  1.0000
  C   C1438     1.0  0.26181  0.80125  0.20019  1.0000
  O   O4312     1.0  0.25944  0.82089  0.18500  1.0000
  O   O4313     1.0  0.24230  0.79156  0.21243  1.0000
  O   O4314     1.0  0.28369  0.79130  0.20314  1.0000
  C   C1439     1.0  0.24842  0.74984  0.29869  1.0000
  O   O4315     1.0  0.26249  0.73112  0.30331  1.0000
  O   O4316     1.0  0.23914  0.75369  0.27289  1.0000
  O   O4317     1.0  0.24364  0.76471  0.31988  1.0000
  C   C1440     1.0  0.21910  0.80308  0.32248  1.0000
  O   O4318     1.0  0.19620  0.79664  0.31692  1.0000
  O   O4319     1.0  0.23352  0.81053  0.30149  1.0000
  O   O4320     1.0  0.22759  0.80207  0.34904  1.0000
  C   C1441     1.0  0.79825  0.32727  0.24310  1.0000
  O   O4321     1.0  0.80868  0.34833  0.24062  1.0000
  O   O4322     1.0  0.78050  0.32392  0.26207  1.0000
  O   O4323     1.0  0.80557  0.30957  0.22661  1.0000
  C   C1442     1.0  0.73079  0.25727  0.26342  1.0000
  O   O4324     1.0  0.71748  0.27327  0.24971  1.0000
  O   O4325     1.0  0.75158  0.24951  0.25205  1.0000
  O   O4326     1.0  0.72332  0.24903  0.28850  1.0000
  C   C1443     1.0  0.87195  0.39252  0.52131  1.0000
  O   O4327     1.0  0.87246  0.39351  0.54964  1.0000
  O   O4328     1.0  0.85661  0.40618  0.50678  1.0000
  O   O4329     1.0  0.88678  0.37787  0.50750  1.0000
  C   C1444     1.0  0.53402  0.73421  0.17451  1.0000
  O   O4330     1.0  0.55625  0.73537  0.18595  1.0000
  O   O4331     1.0  0.52720  0.71509  0.16019  1.0000
  O   O4332     1.0  0.51860  0.75217  0.17740  1.0000
  C   C1445     1.0  0.87204  0.41552  0.70232  1.0000
  O   O4333     1.0  0.85414  0.39973  0.70411  1.0000
  O   O4334     1.0  0.86887  0.43502  0.68707  1.0000
  O   O4335     1.0  0.89311  0.41180  0.71578  1.0000
  C   C1446     1.0  0.94515  0.46250  0.61398  1.0000
  O   O4336     1.0  0.95884  0.47520  0.59628  1.0000
  O   O4337     1.0  0.92089  0.46386  0.61264  1.0000
  O   O4338     1.0  0.95572  0.44843  0.63301  1.0000
  C   C1447     1.0  0.93155  0.49232  0.74035  1.0000
  O   O4339     1.0  0.94841  0.47801  0.72949  1.0000
  O   O4340     1.0  0.92890  0.49404  0.76847  1.0000
  O   O4341     1.0  0.91734  0.50490  0.72309  1.0000
  C   C1448     1.0  0.62316  0.64767  0.43449  1.0000
  O   O4342     1.0  0.64307  0.65813  0.44476  1.0000
  O   O4343     1.0  0.60114  0.65638  0.44033  1.0000
  O   O4344     1.0  0.62527  0.62850  0.41839  1.0000
  C   C1449     1.0  0.70820  0.61290  0.49695  1.0000
  O   O4345     1.0  0.69581  0.60028  0.51598  1.0000
  O   O4346     1.0  0.69923  0.61594  0.47084  1.0000
  O   O4347     1.0  0.72956  0.62248  0.50402  1.0000
  C   C1450     1.0  0.86508  0.33860  0.56564  1.0000
  O   O4348     1.0  0.88457  0.35199  0.56061  1.0000
  O   O4349     1.0  0.86671  0.31532  0.56328  1.0000
  O   O4350     1.0  0.84396  0.34849  0.57303  1.0000
  C   C1451     1.0  0.87066  0.28392  0.56779  1.0000
  O   O4351     1.0  0.89213  0.27956  0.55554  1.0000
  O   O4352     1.0  0.86907  0.28550  0.59603  1.0000
  O   O4353     1.0  0.85077  0.28670  0.55180  1.0000
  C   C1452     1.0  0.91396  0.38180  0.42803  1.0000
  O   O4354     1.0  0.93366  0.37253  0.41575  1.0000
  O   O4355     1.0  0.91627  0.39463  0.45161  1.0000
  O   O4356     1.0  0.89195  0.37825  0.41674  1.0000
  C   C1453     1.0  0.84182  0.29962  0.42697  1.0000
  O   O4357     1.0  0.86591  0.29800  0.43041  1.0000
  O   O4358     1.0  0.82694  0.28604  0.44224  1.0000
  O   O4359     1.0  0.83260  0.31482  0.40826  1.0000
  C   C1454     1.0  0.90038  0.36806  0.60714  1.0000
  O   O4360     1.0  0.89959  0.35537  0.63096  1.0000
  O   O4361     1.0  0.87978  0.37610  0.59561  1.0000
  O   O4362     1.0  0.92177  0.37271  0.59485  1.0000
  C   C1455     1.0  0.88454  0.50491  0.39242  1.0000
  O   O4363     1.0  0.87908  0.48247  0.39742  1.0000
  O   O4364     1.0  0.90048  0.51606  0.40906  1.0000
  O   O4365     1.0  0.87406  0.51620  0.37078  1.0000
  C   C1456     1.0  0.98372  0.50483  0.56760  1.0000
  O   O4366     1.0  0.98669  0.49630  0.54141  1.0000
  O   O4367     1.0  0.00209  0.50403  0.58617  1.0000
  O   O4368     1.0  0.96238  0.51416  0.57521  1.0000
  C   C1457     1.0  0.87953  0.51853  0.66918  1.0000
  O   O4369     1.0  0.85741  0.52729  0.67439  1.0000
  O   O4370     1.0  0.88193  0.49634  0.66055  1.0000
  O   O4371     1.0  0.89925  0.53196  0.67260  1.0000
  C   C1458     1.0  0.86069  0.50283  0.53948  1.0000
  O   O4372     1.0  0.85773  0.50622  0.51163  1.0000
  O   O4373     1.0  0.86506  0.52105  0.55655  1.0000
  O   O4374     1.0  0.85928  0.48122  0.55027  1.0000
  C   C1459     1.0  0.89632  0.54837  0.47140  1.0000
  O   O4375     1.0  0.92009  0.54451  0.46753  1.0000
  O   O4376     1.0  0.88629  0.56835  0.46236  1.0000
  O   O4377     1.0  0.88258  0.53225  0.48431  1.0000
  C   C1460     1.0  0.73061  0.58757  0.45050  1.0000
  O   O4378     1.0  0.75311  0.59401  0.44301  1.0000
  O   O4379     1.0  0.72587  0.58165  0.47738  1.0000
  O   O4380     1.0  0.71286  0.58706  0.43111  1.0000
  C   C1461     1.0  0.56467  0.74897  0.38580  1.0000
  O   O4381     1.0  0.54098  0.74593  0.38050  1.0000
  O   O4382     1.0  0.57524  0.73744  0.40720  1.0000
  O   O4383     1.0  0.57780  0.76354  0.36971  1.0000
  C   C1462     1.0  0.76876  0.50539  0.38332  1.0000
  O   O4384     1.0  0.74544  0.49989  0.38791  1.0000
  O   O4385     1.0  0.78576  0.48864  0.38360  1.0000
  O   O4386     1.0  0.77508  0.52764  0.37845  1.0000
  C   C1463     1.0  0.79242  0.59046  0.18740  1.0000
  O   O4387     1.0  0.79169  0.58505  0.15982  1.0000
  O   O4388     1.0  0.80477  0.57687  0.20546  1.0000
  O   O4389     1.0  0.78079  0.60947  0.19693  1.0000
  C   C1464     1.0  0.57251  0.78683  0.34952  1.0000
  O   O4390     1.0  0.57073  0.78172  0.32192  1.0000
  O   O4391     1.0  0.55239  0.78936  0.36517  1.0000
  O   O4392     1.0  0.59441  0.78941  0.36147  1.0000
  C   C1465     1.0  0.72715  0.64054  0.34299  1.0000
  O   O4393     1.0  0.72496  0.61723  0.34211  1.0000
  O   O4394     1.0  0.74828  0.65064  0.33607  1.0000
  O   O4395     1.0  0.70820  0.65375  0.35079  1.0000
  C   C1466     1.0  0.67583  0.69160  0.26069  1.0000
  O   O4396     1.0  0.65770  0.70285  0.27382  1.0000
  O   O4397     1.0  0.69575  0.68544  0.27517  1.0000
  O   O4398     1.0  0.67404  0.68652  0.23308  1.0000
  C   C1467     1.0  0.61733  0.75229  0.26917  1.0000
  O   O4399     1.0  0.63301  0.75731  0.28999  1.0000
  O   O4400     1.0  0.60446  0.73243  0.27004  1.0000
  O   O4401     1.0  0.61452  0.76713  0.24747  1.0000
  C   C1468     1.0  0.75552  0.55886  0.20428  1.0000
  O   O4402     1.0  0.77151  0.54527  0.21792  1.0000
  O   O4403     1.0  0.76104  0.58118  0.19862  1.0000
  O   O4404     1.0  0.73400  0.55013  0.19630  1.0000
  C   C1469     1.0  0.70671  0.53390  0.13558  1.0000
  O   O4405     1.0  0.70564  0.52421  0.16137  1.0000
  O   O4406     1.0  0.72448  0.54904  0.12933  1.0000
  O   O4407     1.0  0.69001  0.52845  0.11604  1.0000
  C   C1470     1.0  0.65594  0.60243  0.22897  1.0000
  O   O4408     1.0  0.67652  0.60924  0.21629  1.0000
  O   O4409     1.0  0.65556  0.59879  0.25699  1.0000
  O   O4410     1.0  0.63574  0.59926  0.21364  1.0000
  C   C1471     1.0  0.73697  0.57964  0.25693  1.0000
  O   O4411     1.0  0.73391  0.57164  0.28335  1.0000
  O   O4412     1.0  0.73669  0.56475  0.23504  1.0000
  O   O4413     1.0  0.74030  0.60253  0.25240  1.0000
  C   C1472     1.0  0.68414  0.41620  0.02616  1.0000
  O   O4414     1.0  0.69750  0.39779  0.01812  1.0000
  O   O4415     1.0  0.65996  0.41421  0.02829  1.0000
  O   O4416     1.0  0.69495  0.43660  0.03207  1.0000
  C   C1473     1.0  0.62359  0.44257  0.10953  1.0000
  O   O4417     1.0  0.64448  0.44713  0.12298  1.0000
  O   O4418     1.0  0.61234  0.45949  0.09495  1.0000
  O   O4419     1.0  0.61395  0.42109  0.11066  1.0000
  C   C1474     1.0  0.71271  0.43562  0.19316  1.0000
  O   O4420     1.0  0.70502  0.41662  0.17922  1.0000
  O   O4421     1.0  0.69729  0.45321  0.19839  1.0000
  O   O4422     1.0  0.73582  0.43703  0.20187  1.0000
  C   C1475     1.0  0.63348  0.33755  0.94558  1.0000
  O   O4423     1.0  0.64129  0.32023  0.96236  1.0000
  O   O4424     1.0  0.60971  0.33996  0.94029  1.0000
  O   O4425     1.0  0.64945  0.35245  0.93409  1.0000
  C   C1476     1.0  0.68160  0.38344  0.91292  1.0000
  O   O4426     1.0  0.68934  0.40564  0.91241  1.0000
  O   O4427     1.0  0.69116  0.36829  0.93146  1.0000
  O   O4428     1.0  0.66430  0.37639  0.89489  1.0000
  C   C1477     1.0  0.32748  0.70232  0.27701  1.0000
  O   O4429     1.0  0.31655  0.71472  0.29742  1.0000
  O   O4430     1.0  0.31508  0.68584  0.26297  1.0000
  O   O4431     1.0  0.35081  0.70640  0.27064  1.0000
  C   C1478     1.0  0.39626  0.68539  0.16300  1.0000
  O   O4432     1.0  0.39612  0.67899  0.19029  1.0000
  O   O4433     1.0  0.40585  0.67118  0.14343  1.0000
  O   O4434     1.0  0.38680  0.70600  0.15528  1.0000
  C   C1479     1.0  0.48648  0.81002  0.19760  1.0000
  O   O4435     1.0  0.48294  0.78865  0.20843  1.0000
  O   O4436     1.0  0.47223  0.81779  0.17663  1.0000
  O   O4437     1.0  0.50427  0.82362  0.20775  1.0000
  C   C1480     1.0  0.40261  0.75864  0.15546  1.0000
  O   O4438     1.0  0.39049  0.77037  0.17553  1.0000
  O   O4439     1.0  0.39105  0.75151  0.13204  1.0000
  O   O4440     1.0  0.42630  0.75404  0.15880  1.0000
  C   C1481     1.0  0.39600  0.82543  0.17000  1.0000
  O   O4441     1.0  0.37426  0.83357  0.16195  1.0000
  O   O4442     1.0  0.39788  0.81198  0.19311  1.0000
  O   O4443     1.0  0.41587  0.83074  0.15494  1.0000
  C   C1482     1.0  0.43758  0.75432  0.26562  1.0000
  O   O4444     1.0  0.42082  0.77128  0.26477  1.0000
  O   O4445     1.0  0.43301  0.73357  0.25361  1.0000
  O   O4446     1.0  0.45891  0.75812  0.27848  1.0000
  C   C1483     1.0  0.39684  0.82095  0.31468  1.0000
  O   O4447     1.0  0.39910  0.83402  0.33807  1.0000
  O   O4448     1.0  0.41271  0.80372  0.30952  1.0000
  O   O4449     1.0  0.37871  0.82511  0.29645  1.0000
  C   C1484     1.0  0.31097  0.73664  0.36921  1.0000
  O   O4450     1.0  0.29763  0.75249  0.38315  1.0000
  O   O4451     1.0  0.32500  0.72165  0.38360  1.0000
  O   O4452     1.0  0.31028  0.73579  0.34088  1.0000
  C   C1485     1.0  0.33437  0.56397  0.27078  1.0000
  O   O4453     1.0  0.32568  0.54985  0.29101  1.0000
  O   O4454     1.0  0.35833  0.56510  0.26603  1.0000
  O   O4455     1.0  0.31910  0.57697  0.25530  1.0000
  C   C1486     1.0  0.35650  0.63987  0.23820  1.0000
  O   O4456     1.0  0.37771  0.64495  0.22572  1.0000
  O   O4457     1.0  0.35155  0.64828  0.26404  1.0000
  O   O4458     1.0  0.34024  0.62639  0.22484  1.0000
  C   C1487     1.0  0.38321  0.67042  0.31401  1.0000
  O   O4459     1.0  0.40104  0.67317  0.29499  1.0000
  O   O4460     1.0  0.38817  0.67163  0.34174  1.0000
  O   O4461     1.0  0.36042  0.66646  0.30530  1.0000
  C   C1488     1.0  0.45460  0.82384  0.72138  1.0000
  O   O4462     1.0  0.46475  0.83756  0.74108  1.0000
  O   O4463     1.0  0.46858  0.81311  0.70214  1.0000
  O   O4464     1.0  0.43047  0.82085  0.72092  1.0000
  C   C1489     1.0  0.49918  0.74867  0.66873  1.0000
  O   O4465     1.0  0.50555  0.72608  0.66817  1.0000
  O   O4466     1.0  0.47833  0.75516  0.68106  1.0000
  O   O4467     1.0  0.51367  0.76478  0.65696  1.0000
  C   C1490     1.0  0.44483  0.75090  0.77949  1.0000
  O   O4468     1.0  0.44031  0.73565  0.75862  1.0000
  O   O4469     1.0  0.42671  0.76366  0.79042  1.0000
  O   O4470     1.0  0.46747  0.75339  0.78943  1.0000
  C   C1491     1.0  0.56180  0.56532  0.04699  1.0000
  O   O4471     1.0  0.54051  0.55603  0.03910  1.0000
  O   O4472     1.0  0.58166  0.55184  0.04846  1.0000
  O   O4473     1.0  0.56323  0.58809  0.05341  1.0000
  C   C1492     1.0  0.52140  0.71201  0.10392  1.0000
  O   O4474     1.0  0.51376  0.69706  0.12385  1.0000
  O   O4475     1.0  0.53186  0.70391  0.08026  1.0000
  O   O4476     1.0  0.51858  0.73506  0.10765  1.0000
  C   C1493     1.0  0.57652  0.63839  0.05473  1.0000
  O   O4477     1.0  0.58532  0.62174  0.07183  1.0000
  O   O4478     1.0  0.55270  0.63919  0.04901  1.0000
  O   O4479     1.0  0.59154  0.65424  0.04334  1.0000
  C   C1494     1.0  0.62062  0.57854  0.02572  1.0000
  O   O4480     1.0  0.63939  0.58348  0.04275  1.0000
  O   O4481     1.0  0.59875  0.58789  0.03087  1.0000
  O   O4482     1.0  0.62372  0.56425  0.00354  1.0000
  C   C1495     1.0  0.52286  0.70595  0.94152  1.0000
  O   O4483     1.0  0.52802  0.69598  0.96647  1.0000
  O   O4484     1.0  0.50293  0.69952  0.92723  1.0000
  O   O4485     1.0  0.53763  0.72234  0.93086  1.0000
  C   C1496     1.0  0.50638  0.75629  0.03714  1.0000
  O   O4486     1.0  0.50168  0.74448  0.06101  1.0000
  O   O4487     1.0  0.51852  0.74593  0.01601  1.0000
  O   O4488     1.0  0.49893  0.77847  0.03440  1.0000
  C   C1497     1.0  0.53104  0.82672  0.94157  1.0000
  O   O4489     1.0  0.53491  0.81510  0.91736  1.0000
  O   O4490     1.0  0.50844  0.83294  0.94890  1.0000
  O   O4491     1.0  0.54977  0.83212  0.95845  1.0000
  C   C1498     1.0  0.61641  0.84517  0.76728  1.0000
  O   O4492     1.0  0.62999  0.86420  0.76256  1.0000
  O   O4493     1.0  0.62654  0.82595  0.77837  1.0000
  O   O4494     1.0  0.59270  0.84536  0.76091  1.0000
  C   C1499     1.0  0.58156  0.81493  0.81860  1.0000
  O   O4495     1.0  0.56931  0.83367  0.82784  1.0000
  O   O4496     1.0  0.58555  0.81205  0.79084  1.0000
  O   O4497     1.0  0.58982  0.79908  0.83712  1.0000
  C   C1500     1.0  0.51719  0.83030  0.08005  1.0000
  O   O4498     1.0  0.51910  0.85266  0.08817  1.0000
  O   O4499     1.0  0.49978  0.81670  0.09105  1.0000
  O   O4500     1.0  0.53269  0.82154  0.06093  1.0000
  C   C1501     1.0  0.55774  0.74799  0.03367  1.0000
  O   O4501     1.0  0.56648  0.73783  0.01023  1.0000
  O   O4502     1.0  0.55181  0.77070  0.03338  1.0000
  O   O4503     1.0  0.55493  0.73545  0.05740  1.0000
  C   C1502     1.0  0.55775  0.88241  0.21179  1.0000
  O   O4504     1.0  0.55760  0.88329  0.24013  1.0000
  O   O4505     1.0  0.57437  0.86943  0.19831  1.0000
  O   O4506     1.0  0.54128  0.89451  0.19693  1.0000
  C   C1503     1.0  0.59447  0.76196  0.19159  1.0000
  O   O4507     1.0  0.60951  0.77930  0.19906  1.0000
  O   O4508     1.0  0.59218  0.75600  0.16429  1.0000
  O   O4509     1.0  0.58172  0.75057  0.21142  1.0000
  C   C1504     1.0  0.34782  0.63593  0.85162  1.0000
  O   O4510     1.0  0.33239  0.62734  0.83231  1.0000
  O   O4511     1.0  0.36982  0.62630  0.85485  1.0000
  O   O4512     1.0  0.34124  0.65415  0.86770  1.0000
  C   C1505     1.0  0.41591  0.68932  0.96298  1.0000
  O   O4513     1.0  0.41176  0.71135  0.95468  1.0000
  O   O4514     1.0  0.43874  0.68180  0.96664  1.0000
  O   O4515     1.0  0.39723  0.67481  0.96762  1.0000
  C   C1506     1.0  0.48535  0.67790  0.06143  1.0000
  O   O4516     1.0  0.48754  0.67561  0.08954  1.0000
  O   O4517     1.0  0.47205  0.69536  0.05061  1.0000
  O   O4518     1.0  0.49646  0.66273  0.04413  1.0000
  C   C1507     1.0  0.45575  0.59345  0.89841  1.0000
  O   O4519     1.0  0.43953  0.59617  0.91929  1.0000
  O   O4520     1.0  0.45091  0.57902  0.87680  1.0000
  O   O4521     1.0  0.47681  0.60516  0.89914  1.0000
  C   C1508     1.0  0.42019  0.56202  0.93768  1.0000
  O   O4522     1.0  0.39753  0.55872  0.94722  1.0000
  O   O4523     1.0  0.43795  0.56779  0.95576  1.0000
  O   O4524     1.0  0.42509  0.55955  0.91006  1.0000
  C   C1509     1.0  0.39112  0.56609  0.84106  1.0000
  O   O4525     1.0  0.41161  0.56040  0.85472  1.0000
  O   O4526     1.0  0.38300  0.55259  0.81991  1.0000
  O   O4527     1.0  0.37875  0.58528  0.84855  1.0000
  C   C1510     1.0  0.32355  0.70433  0.91383  1.0000
  O   O4528     1.0  0.34265  0.71793  0.90775  1.0000
  O   O4529     1.0  0.32101  0.68358  0.90102  1.0000
  O   O4530     1.0  0.30699  0.71147  0.93272  1.0000
  C   C1511     1.0  0.31157  0.94512  0.75848  1.0000
  O   O4531     1.0  0.32593  0.93079  0.74356  1.0000
  O   O4532     1.0  0.31109  0.96801  0.75254  1.0000
  O   O4533     1.0  0.29769  0.93656  0.77934  1.0000
  C   C1512     1.0  0.40986  0.87192  0.77909  1.0000
  O   O4534     1.0  0.41523  0.89186  0.79257  1.0000
  O   O4535     1.0  0.41783  0.85147  0.78932  1.0000
  O   O4536     1.0  0.39652  0.87243  0.75538  1.0000
  C   C1513     1.0  0.00580  0.68559  0.64785  1.0000
  O   O4537     1.0  0.98476  0.68813  0.66176  1.0000
  O   O4538     1.0  0.00831  0.69439  0.62173  1.0000
  O   O4539     1.0  0.02434  0.67426  0.66007  1.0000
  C   C1514     1.0  0.03326  0.65860  0.58076  1.0000
  O   O4540     1.0  0.05260  0.66797  0.56783  1.0000
  O   O4541     1.0  0.03148  0.65933  0.60904  1.0000
  O   O4542     1.0  0.01569  0.64850  0.56542  1.0000
  C   C1515     1.0  0.64970  0.52800  0.44371  1.0000
  O   O4543     1.0  0.67202  0.53576  0.43746  1.0000
  O   O4544     1.0  0.64585  0.51615  0.46775  1.0000
  O   O4545     1.0  0.63123  0.53209  0.42592  1.0000
  C   C1516     1.0  0.47123  0.46123  0.57097  1.0000
  O   O4546     1.0  0.49355  0.46641  0.56157  1.0000
  O   O4547     1.0  0.45966  0.47600  0.58836  1.0000
  O   O4548     1.0  0.46049  0.44128  0.56298  1.0000
  C   C1517     1.0  0.57275  0.30017  0.52916  1.0000
  O   O4549     1.0  0.55377  0.30340  0.54648  1.0000
  O   O4550     1.0  0.57406  0.31190  0.50466  1.0000
  O   O4551     1.0  0.59042  0.28520  0.53634  1.0000
  C   C1518     1.0  0.55476  0.38826  0.61169  1.0000
  O   O4552     1.0  0.53908  0.38605  0.63322  1.0000
  O   O4553     1.0  0.55494  0.40784  0.59613  1.0000
  O   O4554     1.0  0.57025  0.37089  0.60572  1.0000
  C   C1519     1.0  0.41841  0.32771  0.60304  1.0000
  O   O4555     1.0  0.43179  0.32090  0.58083  1.0000
  O   O4556     1.0  0.42113  0.31713  0.62814  1.0000
  O   O4557     1.0  0.40230  0.34510  0.60014  1.0000
  C   C1520     1.0  0.23435  0.47650  0.65121  1.0000
  O   O4558     1.0  0.21237  0.46908  0.65942  1.0000
  O   O4559     1.0  0.25243  0.46112  0.64760  1.0000
  O   O4560     1.0  0.23825  0.49930  0.64661  1.0000
  C   C1521     1.0  0.31832  0.42646  0.69228  1.0000
  O   O4561     1.0  0.31824  0.41460  0.66783  1.0000
  O   O4562     1.0  0.29779  0.42865  0.70727  1.0000
  O   O4563     1.0  0.33894  0.43613  0.70175  1.0000
  C   C1522     1.0  0.97955  0.80321  0.16714  1.0000
  O   O4564     1.0  0.96363  0.79245  0.18418  1.0000
  O   O4565     1.0  0.97182  0.81938  0.14871  1.0000
  O   O4566     1.0  0.00319  0.79780  0.16853  1.0000
  C   C1523     1.0  0.91328  0.65280  0.31320  1.0000
  O   O4567     1.0  0.89730  0.66483  0.32885  1.0000
  O   O4568     1.0  0.91344  0.62940  0.31412  1.0000
  O   O4569     1.0  0.92910  0.66417  0.29663  1.0000
  C   C1524     1.0  0.92957  0.61381  0.24832  1.0000
  O   O4570     1.0  0.94385  0.62129  0.26942  1.0000
  O   O4571     1.0  0.90809  0.60392  0.25415  1.0000
  O   O4572     1.0  0.93677  0.61622  0.22138  1.0000
  C   C1525     1.0  0.91930  0.75454  0.35735  1.0000
  O   O4573     1.0  0.93633  0.75959  0.33803  1.0000
  O   O4574     1.0  0.92009  0.73416  0.37129  1.0000
  O   O4575     1.0  0.90149  0.76986  0.36273  1.0000
  C   C1526     1.0  0.09380  0.72686  0.33982  1.0000
  O   O4576     1.0  0.08835  0.74014  0.36230  1.0000
  O   O4577     1.0  0.08577  0.73289  0.31406  1.0000
  O   O4578     1.0  0.10728  0.70756  0.34310  1.0000
  C   C1527     1.0  0.96194  0.70150  0.46737  1.0000
  O   O4579     1.0  0.94777  0.71809  0.45607  1.0000
  O   O4580     1.0  0.98394  0.69727  0.45638  1.0000
  O   O4581     1.0  0.95411  0.68913  0.48966  1.0000
  C   C1528     1.0  0.97944  0.67877  0.33032  1.0000
  O   O4582     1.0  0.99365  0.65981  0.33192  1.0000
  O   O4583     1.0  0.98371  0.69716  0.34716  1.0000
  O   O4584     1.0  0.96096  0.67934  0.31188  1.0000
  C   C1529     1.0  0.01049  0.75457  0.26150  1.0000
  O   O4585     1.0  0.99805  0.77400  0.25514  1.0000
  O   O4586     1.0  0.99961  0.73715  0.27559  1.0000
  O   O4587     1.0  0.03381  0.75256  0.25377  1.0000
  C   C1530     1.0  0.97320  0.76230  0.20209  1.0000
  O   O4588     1.0  0.95988  0.76576  0.22546  1.0000
  O   O4589     1.0  0.96610  0.74656  0.18279  1.0000
  O   O4590     1.0  0.99362  0.77458  0.19802  1.0000
  C   C1531     1.0  0.10475  0.54354  0.51179  1.0000
  O   O4591     1.0  0.10066  0.54509  0.53969  1.0000
  O   O4592     1.0  0.12392  0.53149  0.50217  1.0000
  O   O4593     1.0  0.08968  0.55403  0.49351  1.0000
  C   C1532     1.0  0.78209  0.42809  0.49435  1.0000
  O   O4594     1.0  0.76075  0.41765  0.49942  1.0000
  O   O4595     1.0  0.78548  0.45042  0.50190  1.0000
  O   O4596     1.0  0.80004  0.41620  0.48173  1.0000
  C   C1533     1.0  0.71604  0.45856  0.44682  1.0000
  O   O4597     1.0  0.71631  0.47309  0.42458  1.0000
  O   O4598     1.0  0.70768  0.46599  0.47189  1.0000
  O   O4599     1.0  0.72413  0.43660  0.44399  1.0000
  C   C1534     1.0  0.56235  0.44749  0.54600  1.0000
  O   O4600     1.0  0.57181  0.46847  0.55208  1.0000
  O   O4601     1.0  0.54167  0.44598  0.53116  1.0000
  O   O4602     1.0  0.57357  0.42801  0.55477  1.0000
  C   C1535     1.0  0.61776  0.48163  0.49064  1.0000
  O   O4603     1.0  0.64195  0.48089  0.49356  1.0000
  O   O4604     1.0  0.60732  0.47306  0.46722  1.0000
  O   O4605     1.0  0.60401  0.49094  0.51114  1.0000
  C   C1536     1.0  0.67964  0.47472  0.35481  1.0000
  O   O4606     1.0  0.69111  0.45668  0.36698  1.0000
  O   O4607     1.0  0.67940  0.47678  0.32656  1.0000
  O   O4608     1.0  0.66841  0.49069  0.37089  1.0000
  C   C1537     1.0  0.61609  0.31317  0.26124  1.0000
  O   O4609     1.0  0.63113  0.32993  0.25201  1.0000
  O   O4610     1.0  0.60657  0.29784  0.24289  1.0000
  O   O4611     1.0  0.61057  0.31174  0.28881  1.0000
  C   C1538     1.0  0.63825  0.39631  0.40868  1.0000
  O   O4612     1.0  0.64673  0.41437  0.39357  1.0000
  O   O4613     1.0  0.61426  0.39300  0.41120  1.0000
  O   O4614     1.0  0.65376  0.38156  0.42127  1.0000
  C   C1539     1.0  0.68599  0.30896  0.45683  1.0000
  O   O4615     1.0  0.69432  0.31735  0.43219  1.0000
  O   O4616     1.0  0.68593  0.32256  0.47992  1.0000
  O   O4617     1.0  0.67772  0.28697  0.45838  1.0000
  C   C1540     1.0  0.63282  0.31839  0.42744  1.0000
  O   O4618     1.0  0.62227  0.33948  0.42663  1.0000
  O   O4619     1.0  0.61970  0.29917  0.42209  1.0000
  O   O4620     1.0  0.65649  0.31652  0.43360  1.0000
  C   C1541     1.0  0.65029  0.25723  0.38124  1.0000
  O   O4621     1.0  0.64325  0.24394  0.40310  1.0000
  O   O4622     1.0  0.65787  0.24718  0.35719  1.0000
  O   O4623     1.0  0.64975  0.28057  0.38343  1.0000
  C   C1542     1.0  0.59261  0.27587  0.35436  1.0000
  O   O4624     1.0  0.57684  0.28539  0.37262  1.0000
  O   O4625     1.0  0.60753  0.25877  0.36292  1.0000
  O   O4626     1.0  0.59346  0.28345  0.32754  1.0000
  C   C1543     1.0  0.47812  0.26678  0.88546  1.0000
  O   O4627     1.0  0.45575  0.26716  0.87430  1.0000
  O   O4628     1.0  0.48150  0.25900  0.91192  1.0000
  O   O4629     1.0  0.49711  0.27419  0.87016  1.0000
  C   C1544     1.0  0.27847  0.29967  0.38864  1.0000
  O   O4630     1.0  0.29175  0.28186  0.39860  1.0000
  O   O4631     1.0  0.25806  0.29542  0.37408  1.0000
  O   O4632     1.0  0.28560  0.32173  0.39323  1.0000
  C   C1545     1.0  0.20854  0.70902  0.66807  1.0000
  O   O4633     1.0  0.22853  0.70400  0.68305  1.0000
  O   O4634     1.0  0.19672  0.69201  0.65429  1.0000
  O   O4635     1.0  0.20036  0.73105  0.66687  1.0000
  C   C1546     1.0  0.30202  0.52021  0.67971  1.0000
  O   O4636     1.0  0.31480  0.50029  0.67978  1.0000
  O   O4637     1.0  0.30477  0.53566  0.70078  1.0000
  O   O4638     1.0  0.28648  0.52468  0.65856  1.0000
  C   C1547     1.0  0.22497  0.53805  0.79072  1.0000
  O   O4639     1.0  0.23447  0.54617  0.76653  1.0000
  O   O4640     1.0  0.20975  0.55142  0.80581  1.0000
  O   O4641     1.0  0.23069  0.51657  0.79982  1.0000
  C   C1548     1.0  0.24765  0.63377  0.75529  1.0000
  O   O4642     1.0  0.25396  0.65596  0.76055  1.0000
  O   O4643     1.0  0.23127  0.62899  0.73513  1.0000
  O   O4644     1.0  0.25772  0.61636  0.77019  1.0000
  C   C1549     1.0  0.34201  0.29848  0.50786  1.0000
  O   O4645     1.0  0.32047  0.29480  0.52027  1.0000
  O   O4646     1.0  0.35025  0.28346  0.48833  1.0000
  O   O4647     1.0  0.35531  0.31718  0.51498  1.0000
  C   C1550     1.0  0.46271  0.47442  0.41300  1.0000
  O   O4648     1.0  0.46357  0.48538  0.38795  1.0000
  O   O4649     1.0  0.46428  0.48675  0.43705  1.0000
  O   O4650     1.0  0.46028  0.45114  0.41400  1.0000
  C   C1551     1.0  0.40352  0.44366  0.59480  1.0000
  O   O4651     1.0  0.38982  0.43999  0.61782  1.0000
  O   O4652     1.0  0.42216  0.45868  0.59591  1.0000
  O   O4653     1.0  0.39858  0.43230  0.57067  1.0000
  C   C1552     1.0  0.36735  0.45394  0.55005  1.0000
  O   O4654     1.0  0.36111  0.43133  0.54888  1.0000
  O   O4655     1.0  0.38586  0.46076  0.56651  1.0000
  O   O4656     1.0  0.35508  0.46974  0.53476  1.0000
  C   C1553     1.0  0.41039  0.46486  0.51732  1.0000
  O   O4657     1.0  0.38681  0.45914  0.51634  1.0000
  O   O4658     1.0  0.42728  0.44920  0.50976  1.0000
  O   O4659     1.0  0.41708  0.48624  0.52586  1.0000
  C   C1554     1.0  0.32702  0.36712  0.44181  1.0000
  O   O4660     1.0  0.33315  0.34635  0.45278  1.0000
  O   O4661     1.0  0.33861  0.37524  0.41889  1.0000
  O   O4662     1.0  0.30930  0.37978  0.45376  1.0000
  C   C1555     1.0  0.43937  0.39594  0.44872  1.0000
  O   O4663     1.0  0.42633  0.37891  0.43656  1.0000
  O   O4664     1.0  0.45283  0.41028  0.43271  1.0000
  O   O4665     1.0  0.43895  0.39863  0.47689  1.0000
  C   C1556     1.0  0.39223  0.35607  0.28985  1.0000
  O   O4666     1.0  0.38589  0.37176  0.27014  1.0000
  O   O4667     1.0  0.39030  0.33318  0.28435  1.0000
  O   O4668     1.0  0.40050  0.36327  0.31506  1.0000
  C   C1557     1.0  0.56362  0.31879  0.04022  1.0000
  O   O4669     1.0  0.54543  0.33424  0.04236  1.0000
  O   O4670     1.0  0.56632  0.30213  0.05990  1.0000
  O   O4671     1.0  0.57911  0.32000  0.01840  1.0000
  C   C1558     1.0  0.52331  0.30440  0.00820  1.0000
  O   O4672     1.0  0.53835  0.31859  0.99399  1.0000
  O   O4673     1.0  0.53228  0.28643  0.02308  1.0000
  O   O4674     1.0  0.49930  0.30819  0.00753  1.0000
  C   C1559     1.0  0.47811  0.25726  0.02656  1.0000
  O   O4675     1.0  0.49434  0.26266  0.00647  1.0000
  O   O4676     1.0  0.47198  0.27316  0.04612  1.0000
  O   O4677     1.0  0.46800  0.23597  0.02709  1.0000
  C   C1560     1.0  0.49994  0.42136  0.21622  1.0000
  O   O4678     1.0  0.49478  0.40231  0.23158  1.0000
  O   O4679     1.0  0.50210  0.44219  0.22893  1.0000
  O   O4680     1.0  0.50295  0.41958  0.18816  1.0000
  C   C1561     1.0  0.51581  0.39784  0.09739  1.0000
  O   O4681     1.0  0.53664  0.40334  0.11046  1.0000
  O   O4682     1.0  0.49829  0.41393  0.09460  1.0000
  O   O4683     1.0  0.51250  0.37625  0.08712  1.0000
  C   C1562     1.0  0.52675  0.20929  0.32375  1.0000
  O   O4684     1.0  0.54593  0.20906  0.34120  1.0000
  O   O4685     1.0  0.52985  0.20550  0.29599  1.0000
  O   O4686     1.0  0.50447  0.21330  0.33406  1.0000
  C   C1563     1.0  0.40692  0.24140  0.31314  1.0000
  O   O4687     1.0  0.42989  0.23397  0.31052  1.0000
  O   O4688     1.0  0.38906  0.22601  0.31803  1.0000
  O   O4689     1.0  0.40181  0.26422  0.31087  1.0000
  C   C1564     1.0  0.57569  0.32121  0.21065  1.0000
  O   O4690     1.0  0.58918  0.33567  0.22648  1.0000
  O   O4691     1.0  0.58642  0.30449  0.19522  1.0000
  O   O4692     1.0  0.55147  0.32347  0.21025  1.0000
  C   C1565     1.0  0.54649  0.40517  0.26956  1.0000
  O   O4693     1.0  0.54438  0.38949  0.29048  1.0000
  O   O4694     1.0  0.56850  0.41277  0.26170  1.0000
  O   O4695     1.0  0.52659  0.41326  0.25650  1.0000
  C   C1566     1.0  0.43096  0.33272  0.25956  1.0000
  O   O4696     1.0  0.42683  0.31095  0.26882  1.0000
  O   O4697     1.0  0.45310  0.34218  0.26219  1.0000
  O   O4698     1.0  0.41295  0.34503  0.24767  1.0000
  C   C1567     1.0  0.51780  0.30145  0.18997  1.0000
  O   O4699     1.0  0.51940  0.27816  0.18769  1.0000
  O   O4700     1.0  0.50971  0.31417  0.16810  1.0000
  O   O4701     1.0  0.52429  0.31202  0.21412  1.0000
  C   C1568     1.0  0.50216  0.31711  0.33580  1.0000
  O   O4702     1.0  0.50533  0.31691  0.30768  1.0000
  O   O4703     1.0  0.49983  0.33747  0.34954  1.0000
  O   O4704     1.0  0.50132  0.29695  0.35019  1.0000
  C   C1569     1.0  0.21868  0.81289  0.68676  1.0000
  O   O4705     1.0  0.20002  0.82751  0.69095  1.0000
  O   O4706     1.0  0.24123  0.81939  0.69396  1.0000
  O   O4707     1.0  0.21480  0.79177  0.67537  1.0000
  C   C1570     1.0  0.13303  0.83199  0.61015  1.0000
  O   O4708     1.0  0.11886  0.84842  0.59849  1.0000
  O   O4709     1.0  0.15650  0.83052  0.60286  1.0000
  O   O4710     1.0  0.12373  0.81704  0.62909  1.0000
  C   C1571     1.0  0.18072  0.77587  0.57157  1.0000
  O   O4711     1.0  0.18416  0.77522  0.59964  1.0000
  O   O4712     1.0  0.18059  0.75599  0.55658  1.0000
  O   O4713     1.0  0.17741  0.79640  0.55849  1.0000
  C   C1572     1.0  0.92318  0.61777  0.40462  1.0000
  O   O4714     1.0  0.94604  0.61166  0.41094  1.0000
  O   O4715     1.0  0.90497  0.61177  0.42197  1.0000
  O   O4716     1.0  0.91854  0.62988  0.38096  1.0000
  C   C1573     1.0  0.29257  0.62979  0.80987  1.0000
  O   O4717     1.0  0.27584  0.64678  0.80918  1.0000
  O   O4718     1.0  0.29219  0.61388  0.83068  1.0000
  O   O4719     1.0  0.30969  0.62871  0.78975  1.0000
  C   C1574     1.0  0.41427  0.65803  0.75846  1.0000
  O   O4720     1.0  0.42695  0.65756  0.73426  1.0000
  O   O4721     1.0  0.42312  0.64762  0.78168  1.0000
  O   O4722     1.0  0.39274  0.66891  0.75944  1.0000
  C   C1575     1.0  0.49896  0.65458  0.67662  1.0000
  O   O4723     1.0  0.48885  0.63329  0.67582  1.0000
  O   O4724     1.0  0.52318  0.65682  0.67634  1.0000
  O   O4725     1.0  0.48485  0.67363  0.67771  1.0000
  C   C1576     1.0  0.53397  0.57394  0.79870  1.0000
  O   O4726     1.0  0.53672  0.59718  0.80009  1.0000
  O   O4727     1.0  0.51556  0.56476  0.78385  1.0000
  O   O4728     1.0  0.54963  0.55988  0.81216  1.0000
  C   C1577     1.0  0.49695  0.59121  0.93722  1.0000
  O   O4729     1.0  0.50217  0.57313  0.92025  1.0000
  O   O4730     1.0  0.50874  0.61153  0.93409  1.0000
  O   O4731     1.0  0.47993  0.58897  0.95731  1.0000
  C   C1578     1.0  0.58161  0.62135  0.88052  1.0000
  O   O4732     1.0  0.58626  0.59847  0.88320  1.0000
  O   O4733     1.0  0.59369  0.63407  0.86132  1.0000
  O   O4734     1.0  0.56488  0.63150  0.89704  1.0000
  C   C1579     1.0  0.13913  0.52122  0.39735  1.0000
  O   O4735     1.0  0.12031  0.53395  0.40658  1.0000
  O   O4736     1.0  0.15933  0.53187  0.38818  1.0000
  O   O4737     1.0  0.13776  0.49784  0.39729  1.0000
  C   C1580     1.0  0.41838  0.81104  0.65044  1.0000
  O   O4738     1.0  0.44149  0.81468  0.65815  1.0000
  O   O4739     1.0  0.40693  0.79146  0.65845  1.0000
  O   O4740     1.0  0.40672  0.82698  0.63472  1.0000
  C   C1581     1.0  0.36136  0.77550  0.75868  1.0000
  O   O4741     1.0  0.35707  0.76378  0.78273  1.0000
  O   O4742     1.0  0.38194  0.77174  0.74424  1.0000
  O   O4743     1.0  0.34507  0.79098  0.74907  1.0000
  C   C1582     1.0  0.38665  0.69338  0.65837  1.0000
  O   O4744     1.0  0.39366  0.71329  0.64588  1.0000
  O   O4745     1.0  0.39948  0.67375  0.65444  1.0000
  O   O4746     1.0  0.36681  0.69310  0.67479  1.0000
  C   C1583     1.0  0.29333  0.76314  0.65762  1.0000
  O   O4747     1.0  0.28328  0.74285  0.66556  1.0000
  O   O4748     1.0  0.28893  0.78263  0.67248  1.0000
  O   O4749     1.0  0.30778  0.76394  0.63482  1.0000
  C   C1584     1.0  0.21929  0.87005  0.63301  1.0000
  O   O4750     1.0  0.23810  0.87856  0.61826  1.0000
  O   O4751     1.0  0.19755  0.88048  0.63145  1.0000
  O   O4752     1.0  0.22223  0.85110  0.64932  1.0000
  C   C1585     1.0  0.27998  0.82098  0.56273  1.0000
  O   O4753     1.0  0.29960  0.80726  0.56046  1.0000
  O   O4754     1.0  0.26476  0.81834  0.58463  1.0000
  O   O4755     1.0  0.27558  0.83735  0.54310  1.0000
  C   C1586     1.0  0.12406  0.69204  0.39584  1.0000
  O   O4756     1.0  0.13495  0.68355  0.37265  1.0000
  O   O4757     1.0  0.12729  0.68153  0.42090  1.0000
  O   O4758     1.0  0.10994  0.71105  0.39396  1.0000
  C   C1587     1.0  0.19049  0.70610  0.50509  1.0000
  O   O4759     1.0  0.20256  0.69881  0.48210  1.0000
  O   O4760     1.0  0.19189  0.72851  0.51316  1.0000
  O   O4761     1.0  0.17702  0.69098  0.52001  1.0000
  C   C1588     1.0  0.11416  0.57863  0.44208  1.0000
  O   O4762     1.0  0.09959  0.59571  0.45148  1.0000
  O   O4763     1.0  0.12335  0.56301  0.46029  1.0000
  O   O4764     1.0  0.11954  0.57718  0.41447  1.0000
  C   C1589     1.0  0.30288  0.72591  0.47620  1.0000
  O   O4765     1.0  0.31615  0.73836  0.45782  1.0000
  O   O4766     1.0  0.27895  0.72337  0.47209  1.0000
  O   O4767     1.0  0.31354  0.71600  0.49869  1.0000
  C   C1590     1.0  0.02139  0.65107  0.44761  1.0000
  O   O4768     1.0  0.02460  0.63469  0.42769  1.0000
  O   O4769     1.0  0.02434  0.64565  0.47499  1.0000
  O   O4770     1.0  0.01523  0.67287  0.44015  1.0000
  C   C1591     1.0  0.18782  0.60225  0.50135  1.0000
  O   O4771     1.0  0.19321  0.62124  0.51670  1.0000
  O   O4772     1.0  0.20539  0.59093  0.48731  1.0000
  O   O4773     1.0  0.16486  0.59458  0.50004  1.0000
  C   C1592     1.0  0.09755  0.63697  0.50764  1.0000
  O   O4774     1.0  0.11959  0.64187  0.49719  1.0000
  O   O4775     1.0  0.07896  0.63285  0.49003  1.0000
  O   O4776     1.0  0.09410  0.63619  0.53570  1.0000
  C   C1593     1.0  0.10805  0.71972  0.61321  1.0000
  O   O4777     1.0  0.11287  0.74154  0.60460  1.0000
  O   O4778     1.0  0.08680  0.70972  0.60657  1.0000
  O   O4779     1.0  0.12448  0.70790  0.62846  1.0000
  C   C1594     1.0  0.30482  0.85055  0.46880  1.0000
  O   O4780     1.0  0.30052  0.82951  0.45740  1.0000
  O   O4781     1.0  0.32680  0.86037  0.46622  1.0000
  O   O4782     1.0  0.28714  0.86177  0.48277  1.0000
  C   C1595     1.0  0.32860  0.77033  0.46890  1.0000
  O   O4783     1.0  0.30748  0.77748  0.45780  1.0000
  O   O4784     1.0  0.34932  0.77348  0.45453  1.0000
  O   O4785     1.0  0.32900  0.76004  0.49437  1.0000
  C   C1596     1.0  0.42346  0.77006  0.61933  1.0000
  O   O4786     1.0  0.44349  0.78304  0.62284  1.0000
  O   O4787     1.0  0.42254  0.74833  0.62982  1.0000
  O   O4788     1.0  0.40435  0.77882  0.60533  1.0000
  C   C1597     1.0  0.37877  0.78294  0.55655  1.0000
  O   O4789     1.0  0.37440  0.78189  0.52868  1.0000
  O   O4790     1.0  0.37920  0.76329  0.57197  1.0000
  O   O4791     1.0  0.38271  0.80363  0.56900  1.0000
  C   C1598     1.0  0.18284  0.66242  0.56449  1.0000
  O   O4792     1.0  0.16044  0.66164  0.55346  1.0000
  O   O4793     1.0  0.20196  0.65578  0.54889  1.0000
  O   O4794     1.0  0.18613  0.66983  0.59112  1.0000
  C   C1599     1.0  0.25226  0.68730  0.52906  1.0000
  O   O4795     1.0  0.26512  0.70146  0.51217  1.0000
  O   O4796     1.0  0.22812  0.68578  0.52603  1.0000
  O   O4797     1.0  0.26354  0.67465  0.54898  1.0000
  C   C1600     1.0  0.21551  0.74872  0.62769  1.0000
  O   O4798     1.0  0.20388  0.76468  0.64340  1.0000
  O   O4799     1.0  0.22235  0.72839  0.63928  1.0000
  O   O4800     1.0  0.22031  0.75309  0.60039  1.0000
  C   C1601     1.0  0.21667  0.75463  0.46964  1.0000
  O   O4801     1.0  0.20939  0.75930  0.44317  1.0000
  O   O4802     1.0  0.23246  0.73726  0.47444  1.0000
  O   O4803     1.0  0.20816  0.76733  0.49131  1.0000
  C   C1602     1.0  0.02973  0.61871  0.61883  1.0000
  O   O4804     1.0  0.05130  0.62428  0.60756  1.0000
  O   O4805     1.0  0.02329  0.62740  0.64407  1.0000
  O   O4806     1.0  0.01460  0.60445  0.60486  1.0000
  C   C1603     1.0  0.08637  0.59465  0.57017  1.0000
  O   O4807     1.0  0.08371  0.57138  0.57013  1.0000
  O   O4808     1.0  0.10758  0.60418  0.57792  1.0000
  O   O4809     1.0  0.06782  0.60840  0.56246  1.0000
  C   C1604     1.0  0.06169  0.60313  0.40621  1.0000
  O   O4810     1.0  0.04335  0.61170  0.39072  1.0000
  O   O4811     1.0  0.06552  0.61112  0.43250  1.0000
  O   O4812     1.0  0.07620  0.58658  0.39542  1.0000
  C   C1605     1.0  0.96497  0.65191  0.55677  1.0000
  O   O4813     1.0  0.97480  0.64857  0.58240  1.0000
  O   O4814     1.0  0.94396  0.66353  0.55425  1.0000
  O   O4815     1.0  0.97615  0.64363  0.53366  1.0000
  C   C1606     1.0  0.94654  0.60026  0.56737  1.0000
  O   O4816     1.0  0.92764  0.59602  0.58447  1.0000
  O   O4817     1.0  0.96103  0.58269  0.55923  1.0000
  O   O4818     1.0  0.95095  0.62207  0.55841  1.0000
  C   C1607     1.0  0.37346  0.95942  0.53453  1.0000
  O   O4819     1.0  0.37907  0.94053  0.54996  1.0000
  O   O4820     1.0  0.38577  0.96407  0.51072  1.0000
  O   O4821     1.0  0.35554  0.97367  0.54291  1.0000
  C   C1608     1.0  0.31196  0.93595  0.44220  1.0000
  O   O4822     1.0  0.30072  0.91521  0.44084  1.0000
  O   O4823     1.0  0.33618  0.93712  0.43983  1.0000
  O   O4824     1.0  0.29898  0.95552  0.44593  1.0000
  C   C1609     1.0  0.39388  0.88845  0.53713  1.0000
  O   O4825     1.0  0.40541  0.88566  0.56188  1.0000
  O   O4826     1.0  0.40335  0.87944  0.51339  1.0000
  O   O4827     1.0  0.37288  0.90025  0.53611  1.0000
  C   C1610     1.0  0.29593  0.84392  0.61955  1.0000
  O   O4828     1.0  0.28595  0.82636  0.63428  1.0000
  O   O4829     1.0  0.29160  0.86611  0.62706  1.0000
  O   O4830     1.0  0.31024  0.83929  0.59730  1.0000
  C   C1611     1.0  0.40969  0.79208  0.47997  1.0000
  O   O4831     1.0  0.42503  0.79004  0.50185  1.0000
  O   O4832     1.0  0.41497  0.80655  0.45854  1.0000
  O   O4833     1.0  0.38907  0.77965  0.47953  1.0000
  C   C1612     1.0  0.56073  0.64177  0.70736  1.0000
  O   O4834     1.0  0.53909  0.63929  0.71997  1.0000
  O   O4835     1.0  0.57679  0.65728  0.71741  1.0000
  O   O4836     1.0  0.56631  0.62875  0.68470  1.0000
  C   C1613     1.0  0.53962  0.67958  0.62363  1.0000
  O   O4837     1.0  0.53495  0.66541  0.60172  1.0000
  O   O4838     1.0  0.52144  0.68700  0.64021  1.0000
  O   O4839     1.0  0.56247  0.68633  0.62897  1.0000
  C   C1614     1.0  0.56352  0.41901  0.66389  1.0000
  O   O4840     1.0  0.55304  0.43289  0.64459  1.0000
  O   O4841     1.0  0.55961  0.42271  0.69153  1.0000
  O   O4842     1.0  0.57791  0.40143  0.65555  1.0000
  C   C1615     1.0  0.48174  0.50819  0.49519  1.0000
  O   O4843     1.0  0.48851  0.50804  0.46795  1.0000
  O   O4844     1.0  0.49734  0.51531  0.51517  1.0000
  O   O4845     1.0  0.45936  0.50122  0.50245  1.0000
  C   C1616     1.0  0.53098  0.59314  0.56437  1.0000
  O   O4846     1.0  0.54186  0.57250  0.56865  1.0000
  O   O4847     1.0  0.50669  0.59459  0.56456  1.0000
  O   O4848     1.0  0.54439  0.61233  0.55990  1.0000
  C   C1617     1.0  0.57201  0.54603  0.70949  1.0000
  O   O4849     1.0  0.57218  0.56328  0.72867  1.0000
  O   O4850     1.0  0.55903  0.52662  0.71429  1.0000
  O   O4851     1.0  0.58482  0.54818  0.68551  1.0000
  C   C1618     1.0  0.54927  0.52494  0.58041  1.0000
  O   O4852     1.0  0.56869  0.53869  0.58425  1.0000
  O   O4853     1.0  0.55020  0.50237  0.58787  1.0000
  O   O4854     1.0  0.52892  0.53376  0.56911  1.0000
  C   C1619     1.0  0.63876  0.54586  0.61719  1.0000
  O   O4855     1.0  0.65737  0.54384  0.63530  1.0000
  O   O4856     1.0  0.64303  0.54897  0.58952  1.0000
  O   O4857     1.0  0.61588  0.54477  0.62675  1.0000
  C   C1620     1.0  0.61704  0.44422  0.66186  1.0000
  O   O4858     1.0  0.61917  0.45527  0.63698  1.0000
  O   O4859     1.0  0.59542  0.43588  0.67007  1.0000
  O   O4860     1.0  0.63652  0.44151  0.67853  1.0000
  O   O4861     1.0  0.00843  0.83895  0.75481  1.0000
  H   H1        1.0  0.99500  0.83882  0.74059  1.0000
  H   H2        1.0  0.00816  0.85510  0.76283  1.0000
  O   O4862     1.0  0.23361  0.78793  0.01447  1.0000
  H   H3        1.0  0.21932  0.79675  0.00702  1.0000
  H   H4        1.0  0.22747  0.78016  0.03200  1.0000
  O   O4863     1.0  0.13812  0.82671  0.02909  1.0000
  H   H5        1.0  0.12792  0.83124  0.01248  1.0000
  H   H6        1.0  0.15273  0.81911  0.02060  1.0000
  O   O4864     1.0  0.02846  0.86037  0.87060  1.0000
  H   H7        1.0  0.04637  0.85873  0.87331  1.0000
  H   H8        1.0  0.02602  0.85881  0.84973  1.0000
  O   O4865     1.0  0.12923  0.67549  0.72026  1.0000
  H   H9        1.0  0.13445  0.65880  0.72129  1.0000
  H   H10       1.0  0.14368  0.68393  0.71258  1.0000
  O   O4866     1.0  0.95801  0.79483  0.61831  1.0000
  H   H11       1.0  0.97273  0.79470  0.63066  1.0000
  H   H12       1.0  0.96117  0.78240  0.60392  1.0000
  O   O4867     1.0  0.03581  0.72166  0.66997  1.0000
  H   H13       1.0  0.04430  0.73440  0.68051  1.0000
  H   H14       1.0  0.02369  0.72996  0.65787  1.0000
  O   O4868     1.0  0.93497  0.71706  0.60089  1.0000
  H   H15       1.0  0.94232  0.72687  0.58564  1.0000
  H   H16       1.0  0.92326  0.70667  0.59077  1.0000
  O   O4869     1.0  0.87592  0.65597  0.47594  1.0000
  H   H17       1.0  0.87407  0.66321  0.49506  1.0000
  H   H18       1.0  0.86214  0.66246  0.46466  1.0000
  O   O4870     1.0  0.82764  0.62703  0.35379  1.0000
  H   H19       1.0  0.82056  0.63136  0.37254  1.0000
  H   H20       1.0  0.81762  0.61352  0.34725  1.0000
  O   O4871     1.0  0.80973  0.59391  0.39317  1.0000
  H   H21       1.0  0.81655  0.59900  0.37457  1.0000
  H   H22       1.0  0.80837  0.60862  0.40443  1.0000
  O   O4872     1.0  0.82654  0.55000  0.40518  1.0000
  H   H23       1.0  0.83644  0.55624  0.42120  1.0000
  H   H24       1.0  0.81825  0.56403  0.39713  1.0000
  O   O4873     1.0  0.79027  0.52905  0.44648  1.0000
  H   H25       1.0  0.79396  0.52187  0.46527  1.0000
  H   H26       1.0  0.79455  0.54590  0.44882  1.0000
  O   O4874     1.0  0.94436  0.76288  0.50100  1.0000
  H   H27       1.0  0.93575  0.74978  0.51073  1.0000
  H   H28       1.0  0.95895  0.76592  0.51302  1.0000
  O   O4875     1.0  0.13721  0.72137  0.68946  1.0000
  H   H29       1.0  0.12963  0.73654  0.68386  1.0000
  H   H30       1.0  0.12343  0.71002  0.68969  1.0000
  O   O4876     1.0  0.09103  0.69845  0.68617  1.0000
  H   H31       1.0  0.10365  0.68758  0.69375  1.0000
  H   H32       1.0  0.09055  0.71157  0.70010  1.0000
  O   O4877     1.0  0.92256  0.66376  0.86919  1.0000
  H   H33       1.0  0.93787  0.65520  0.87381  1.0000
  H   H34       1.0  0.90959  0.65497  0.87945  1.0000
  O   O4878     1.0  0.25757  0.59858  0.93781  1.0000
  H   H35       1.0  0.24939  0.61365  0.93303  1.0000
  H   H36       1.0  0.25745  0.59802  0.95894  1.0000
  O   O4879     1.0  0.21946  0.54474  0.91042  1.0000
  H   H37       1.0  0.23493  0.53680  0.91584  1.0000
  H   H38       1.0  0.21414  0.55296  0.92801  1.0000
  O   O4880     1.0  0.22362  0.54281  0.04636  1.0000
  H   H39       1.0  0.21183  0.54583  0.06201  1.0000
  H   H40       1.0  0.23479  0.55656  0.04673  1.0000
  O   O4881     1.0  0.25512  0.49296  0.98317  1.0000
  H   H41       1.0  0.24059  0.48254  0.98218  1.0000
  H   H42       1.0  0.25144  0.50592  0.96967  1.0000
  O   O4882     1.0  0.25410  0.60260  0.00004  1.0000
  H   H43       1.0  0.25821  0.60726  0.01985  1.0000
  H   H44       1.0  0.25697  0.58537  0.99951  1.0000
  O   O4883     1.0  0.07512  0.65772  0.72395  1.0000
  H   H45       1.0  0.07914  0.67295  0.73316  1.0000
  H   H46       1.0  0.06300  0.65033  0.73689  1.0000
  O   O4884     1.0  0.09921  0.59012  0.84690  1.0000
  H   H47       1.0  0.10753  0.60523  0.85118  1.0000
  H   H48       1.0  0.08717  0.58818  0.86254  1.0000
  O   O4885     1.0  0.06541  0.60236  0.80633  1.0000
  H   H49       1.0  0.07357  0.61779  0.80363  1.0000
  H   H50       1.0  0.07527  0.59435  0.82119  1.0000
  O   O4886     1.0  0.18010  0.65147  0.96516  1.0000
  H   H51       1.0  0.19267  0.64350  0.97695  1.0000
  H   H52       1.0  0.18904  0.66443  0.95556  1.0000
  O   O4887     1.0  0.06417  0.68644  0.83007  1.0000
  H   H53       1.0  0.06220  0.67471  0.84556  1.0000
  H   H54       1.0  0.07069  0.70064  0.83973  1.0000
  O   O4888     1.0  0.10310  0.71570  0.82060  1.0000
  H   H55       1.0  0.11533  0.71825  0.80529  1.0000
  H   H56       1.0  0.09271  0.70267  0.81345  1.0000
  O   O4889     1.0  0.07126  0.71109  0.93538  1.0000
  H   H57       1.0  0.05376  0.71498  0.93835  1.0000
  H   H58       1.0  0.07360  0.71211  0.91445  1.0000
  O   O4890     1.0  0.01208  0.62109  0.82172  1.0000
  H   H59       1.0  0.01148  0.63592  0.81059  1.0000
  H   H60       1.0  0.02295  0.62471  0.83807  1.0000
  O   O4891     1.0  0.04395  0.63391  0.86819  1.0000
  H   H61       1.0  0.05363  0.64761  0.87484  1.0000
  H   H62       1.0  0.02667  0.63892  0.87036  1.0000
  O   O4892     1.0  0.18507  0.63306  0.90762  1.0000
  H   H63       1.0  0.17229  0.64255  0.89797  1.0000
  H   H64       1.0  0.18458  0.63836  0.92776  1.0000
  O   O4893     1.0  0.10764  0.66612  0.92766  1.0000
  H   H65       1.0  0.09302  0.66858  0.91550  1.0000
  H   H66       1.0  0.12149  0.66538  0.91404  1.0000
  O   O4894     1.0  0.10840  0.63109  0.87823  1.0000
  H   H67       1.0  0.11979  0.64161  0.88865  1.0000
  H   H68       1.0  0.09804  0.62402  0.89333  1.0000
  O   O4895     1.0  0.09292  0.89558  0.59346  1.0000
  H   H69       1.0  0.08851  0.89494  0.61396  1.0000
  H   H70       1.0  0.08641  0.91091  0.58679  1.0000
  O   O4896     1.0  0.12578  0.91794  0.98112  1.0000
  H   H71       1.0  0.12988  0.92322  0.96154  1.0000
  H   H72       1.0  0.12261  0.90083  0.97917  1.0000
  O   O4897     1.0  0.96104  0.98978  0.60399  1.0000
  H   H73       1.0  0.96786  0.99660  0.58622  1.0000
  H   H74       1.0  0.96544  0.97286  0.60307  1.0000
  O   O4898     1.0  0.24876  0.72924  0.94419  1.0000
  H   H75       1.0  0.25000  0.71734  0.92879  1.0000
  H   H76       1.0  0.23565  0.74007  0.93776  1.0000
  O   O4899     1.0  0.06900  0.78984  0.60030  1.0000
  H   H77       1.0  0.06654  0.78501  0.62042  1.0000
  H   H78       1.0  0.05222  0.79177  0.59261  1.0000
  O   O4900     1.0  0.16216  0.88122  0.77473  1.0000
  H   H79       1.0  0.16982  0.87232  0.79057  1.0000
  H   H80       1.0  0.16115  0.86974  0.75885  1.0000
  O   O4901     1.0  0.07894  0.94084  0.83028  1.0000
  H   H81       1.0  0.09355  0.93503  0.81991  1.0000
  H   H82       1.0  0.08001  0.93331  0.84932  1.0000
  O   O4902     1.0  0.96962  0.90492  0.59608  1.0000
  H   H83       1.0  0.98039  0.89555  0.60876  1.0000
  H   H84       1.0  0.98068  0.91664  0.58717  1.0000
  O   O4903     1.0  0.21111  0.90715  0.73756  1.0000
  H   H85       1.0  0.19725  0.91105  0.72476  1.0000
  H   H86       1.0  0.21101  0.88972  0.73867  1.0000
  O   O4904     1.0  0.94936  0.76095  0.07709  1.0000
  H   H87       1.0  0.95109  0.76978  0.09522  1.0000
  H   H88       1.0  0.96612  0.76056  0.06901  1.0000
  O   O4905     1.0  0.14286  0.79294  0.83978  1.0000
  H   H89       1.0  0.15966  0.79952  0.83967  1.0000
  H   H90       1.0  0.13912  0.78994  0.81941  1.0000
  O   O4906     1.0  0.14120  0.78797  0.78214  1.0000
  H   H91       1.0  0.13251  0.79707  0.76721  1.0000
  H   H92       1.0  0.13606  0.77144  0.77893  1.0000
  O   O4907     1.0  0.18784  0.69808  0.89173  1.0000
  H   H93       1.0  0.17940  0.71243  0.88478  1.0000
  H   H94       1.0  0.20548  0.70212  0.89102  1.0000
  O   O4908     1.0  0.26284  0.95006  0.94625  1.0000
  H   H95       1.0  0.26515  0.93967  0.92947  1.0000
  H   H96       1.0  0.24956  0.96097  0.94053  1.0000
  O   O4909     1.0  0.22621  0.89270  0.83512  1.0000
  H   H97       1.0  0.21578  0.89910  0.85059  1.0000
  H   H98       1.0  0.21624  0.88000  0.82644  1.0000
  O   O4910     1.0  0.20989  0.91975  0.93479  1.0000
  H   H99       1.0  0.20807  0.91099  0.95295  1.0000
  H   H100      1.0  0.19295  0.92146  0.92752  1.0000
  O   O4911     1.0  0.25417  0.02400  0.39042  1.0000
  H   H101      1.0  0.26019  0.03917  0.39818  1.0000
  H   H102      1.0  0.26344  0.02183  0.37243  1.0000
  O   O4912     1.0  0.18533  0.89627  0.86890  1.0000
  H   H103      1.0  0.17835  0.90834  0.88183  1.0000
  H   H104      1.0  0.17823  0.88120  0.87565  1.0000
  O   O4913     1.0  0.27742  0.06051  0.44489  1.0000
  H   H105      1.0  0.27777  0.06287  0.42394  1.0000
  H   H106      1.0  0.29354  0.05344  0.44944  1.0000
  O   O4914     1.0  0.20532  0.81908  0.88563  1.0000
  H   H107      1.0  0.20034  0.80393  0.87686  1.0000
  H   H108      1.0  0.19094  0.82951  0.88307  1.0000
  O   O4915     1.0  0.18410  0.86155  0.82646  1.0000
  H   H109      1.0  0.17782  0.85872  0.84600  1.0000
  H   H110      1.0  0.19902  0.85168  0.82514  1.0000
  O   O4916     1.0  0.18271  0.83035  0.76559  1.0000
  H   H111      1.0  0.18090  0.83780  0.74659  1.0000
  H   H112      1.0  0.19550  0.83981  0.77527  1.0000
  O   O4917     1.0  0.21461  0.95391  0.98776  1.0000
  H   H113      1.0  0.19884  0.96232  0.98541  1.0000
  H   H114      1.0  0.20995  0.93807  0.99480  1.0000
  O   O4918     1.0  0.01652  0.55921  0.39312  1.0000
  H   H115      1.0  0.00107  0.55714  0.38232  1.0000
  H   H116      1.0  0.01935  0.54375  0.40236  1.0000
  O   O4919     1.0  0.15029  0.94196  0.03774  1.0000
  H   H117      1.0  0.15994  0.92774  0.03285  1.0000
  H   H118      1.0  0.15292  0.95280  0.02146  1.0000
  O   O4920     1.0  0.16490  0.96206  0.98810  1.0000
  H   H119      1.0  0.16157  0.95662  0.96839  1.0000
  H   H120      1.0  0.14864  0.96663  0.99567  1.0000
  O   O4921     1.0  0.11761  0.91819  0.67339  1.0000
  H   H121      1.0  0.11075  0.90687  0.65942  1.0000
  H   H122      1.0  0.10672  0.91689  0.69023  1.0000
  O   O4922     1.0  0.11494  0.83612  0.86770  1.0000
  H   H123      1.0  0.10129  0.82485  0.86494  1.0000
  H   H124      1.0  0.10881  0.85113  0.85961  1.0000
  O   O4923     1.0  0.09280  0.96149  0.89337  1.0000
  H   H125      1.0  0.10559  0.96877  0.88124  1.0000
  H   H126      1.0  0.09843  0.96433  0.91317  1.0000
  O   O4924     1.0  0.08992  0.91325  0.88724  1.0000
  H   H127      1.0  0.10142  0.90550  0.87386  1.0000
  H   H128      1.0  0.09411  0.93021  0.88610  1.0000
  O   O4925     1.0  0.11841  0.88561  0.85249  1.0000
  H   H129      1.0  0.11336  0.87618  0.83570  1.0000
  H   H130      1.0  0.12305  0.90113  0.84448  1.0000
  O   O4926     1.0  0.06520  0.86206  0.75710  1.0000
  H   H131      1.0  0.07261  0.84979  0.74479  1.0000
  H   H132      1.0  0.07213  0.85904  0.77630  1.0000
  O   O4927     1.0  0.14262  0.95952  0.71304  1.0000
  H   H133      1.0  0.12548  0.95941  0.70610  1.0000
  H   H134      1.0  0.14168  0.95280  0.73253  1.0000
  O   O4928     1.0  0.04140  0.91025  0.74666  1.0000
  H   H135      1.0  0.02788  0.90430  0.75878  1.0000
  H   H136      1.0  0.03465  0.92458  0.73750  1.0000
  O   O4929     1.0  0.07903  0.90294  0.70816  1.0000
  H   H137      1.0  0.06309  0.90376  0.71820  1.0000
  H   H138      1.0  0.07517  0.89551  0.68956  1.0000
  O   O4930     1.0  0.02141  0.84153  0.63414  1.0000
  H   H139      1.0  0.02281  0.83699  0.65449  1.0000
  H   H140      1.0  0.01935  0.85887  0.63450  1.0000
  O   O4931     1.0  0.31884  0.96770  0.37961  1.0000
  H   H141      1.0  0.30960  0.95862  0.39410  1.0000
  H   H142      1.0  0.32615  0.98096  0.39040  1.0000
  O   O4932     1.0  0.02606  0.82239  0.69010  1.0000
  H   H143      1.0  0.03530  0.83710  0.68643  1.0000
  H   H144      1.0  0.03885  0.81035  0.69357  1.0000
  O   O4933     1.0  0.14551  0.87512  0.66000  1.0000
  H   H145      1.0  0.15563  0.88140  0.67581  1.0000
  H   H146      1.0  0.13106  0.86812  0.66956  1.0000
  O   O4934     1.0  0.06951  0.92973  0.64762  1.0000
  H   H147      1.0  0.08193  0.94235  0.64565  1.0000
  H   H148      1.0  0.07920  0.91507  0.64968  1.0000
  O   O4935     1.0  0.01864  0.79685  0.57211  1.0000
  H   H149      1.0  0.00552  0.78893  0.58312  1.0000
  H   H150      1.0  0.01889  0.81318  0.57957  1.0000
  O   O4936     1.0  0.03264  0.84263  0.57809  1.0000
  H   H151      1.0  0.03483  0.83663  0.59778  1.0000
  H   H152      1.0  0.04482  0.83382  0.56662  1.0000
  O   O4937     1.0  0.02460  0.87430  0.51207  1.0000
  H   H153      1.0  0.02008  0.88051  0.53112  1.0000
  H   H154      1.0  0.03465  0.86017  0.51619  1.0000
  O   O4938     1.0  0.84367  0.70940  0.02634  1.0000
  H   H155      1.0  0.84422  0.72431  0.03732  1.0000
  H   H156      1.0  0.85584  0.69910  0.03583  1.0000
  O   O4939     1.0  0.97695  0.85930  0.49543  1.0000
  H   H157      1.0  0.96485  0.87197  0.49187  1.0000
  H   H158      1.0  0.99213  0.86773  0.50088  1.0000
  O   O4940     1.0  0.91906  0.70815  0.04524  1.0000
  H   H159      1.0  0.90831  0.69429  0.04237  1.0000
  H   H160      1.0  0.90984  0.71841  0.05855  1.0000
  O   O4941     1.0  0.93969  0.89082  0.48417  1.0000
  H   H161      1.0  0.93447  0.87411  0.48457  1.0000
  H   H162      1.0  0.92421  0.89988  0.48505  1.0000
  O   O4942     1.0  0.73521  0.15913  0.54875  1.0000
  H   H163      1.0  0.72912  0.16378  0.52964  1.0000
  H   H164      1.0  0.73276  0.14185  0.54951  1.0000
  O   O4943     1.0  0.73277  0.11217  0.56261  1.0000
  H   H165      1.0  0.73678  0.09932  0.54909  1.0000
  H   H166      1.0  0.74884  0.11908  0.56774  1.0000
  O   O4944     1.0  0.00785  0.31874  0.20786  1.0000
  H   H167      1.0  0.02380  0.31225  0.21416  1.0000
  H   H168      1.0  0.00940  0.32014  0.18686  1.0000
  O   O4945     1.0  0.05458  0.30195  0.20263  1.0000
  H   H169      1.0  0.05363  0.31611  0.21494  1.0000
  H   H170      1.0  0.04548  0.30635  0.18513  1.0000
  O   O4946     1.0  0.05340  0.27196  0.15590  1.0000
  H   H171      1.0  0.06519  0.26122  0.16533  1.0000
  H   H172      1.0  0.05098  0.28491  0.16979  1.0000
  O   O4947     1.0  0.11029  0.21130  0.08644  1.0000
  H   H173      1.0  0.10659  0.22104  0.10345  1.0000
  H   H174      1.0  0.09949  0.21767  0.07130  1.0000
  O   O4948     1.0  0.07224  0.31999  0.10148  1.0000
  H   H175      1.0  0.06693  0.32978  0.11786  1.0000
  H   H176      1.0  0.08355  0.30825  0.10991  1.0000
  O   O4949     1.0  0.11675  0.23710  0.00509  1.0000
  H   H177      1.0  0.11103  0.22895  0.98762  1.0000
  H   H178      1.0  0.10312  0.23521  0.01886  1.0000
  O   O4950     1.0  0.07906  0.33798  0.01425  1.0000
  H   H179      1.0  0.08437  0.34356  0.99519  1.0000
  H   H180      1.0  0.08278  0.32090  0.01420  1.0000
  O   O4951     1.0  0.48729  0.90034  0.92647  1.0000
  H   H181      1.0  0.48683  0.91688  0.91973  1.0000
  H   H182      1.0  0.48697  0.89080  0.90877  1.0000
  O   O4952     1.0  0.69914  0.98176  0.87892  1.0000
  H   H183      1.0  0.70467  0.96892  0.89172  1.0000
  H   H184      1.0  0.71313  0.99286  0.87829  1.0000
  O   O4953     1.0  0.60684  0.05969  0.87229  1.0000
  H   H185      1.0  0.62429  0.05552  0.87508  1.0000
  H   H186      1.0  0.60347  0.07171  0.88711  1.0000
  O   O4954     1.0  0.64501  0.87566  0.86358  1.0000
  H   H187      1.0  0.63590  0.87372  0.88172  1.0000
  H   H188      1.0  0.65699  0.88835  0.86756  1.0000
  O   O4955     1.0  0.43683  0.88942  0.85655  1.0000
  H   H189      1.0  0.45316  0.88340  0.86215  1.0000
  H   H190      1.0  0.43964  0.90623  0.85190  1.0000
  O   O4956     1.0  0.56369  0.89743  0.79915  1.0000
  H   H191      1.0  0.54910  0.89618  0.81163  1.0000
  H   H192      1.0  0.57710  0.90221  0.81217  1.0000
  O   O4957     1.0  0.96044  0.87144  0.65250  1.0000
  H   H193      1.0  0.97060  0.87095  0.67001  1.0000
  H   H194      1.0  0.94509  0.86327  0.65787  1.0000
  O   O4958     1.0  0.60288  0.94643  0.89930  1.0000
  H   H195      1.0  0.59663  0.94280  0.87995  1.0000
  H   H196      1.0  0.62030  0.94157  0.89879  1.0000
  O   O4959     1.0  0.63172  0.95879  0.85232  1.0000
  H   H197      1.0  0.62698  0.95547  0.83231  1.0000
  H   H198      1.0  0.61804  0.95243  0.86388  1.0000
  O   O4960     1.0  0.78267  0.84381  0.88951  1.0000
  H   H199      1.0  0.77020  0.84818  0.90393  1.0000
  H   H200      1.0  0.78833  0.85905  0.88160  1.0000
  O   O4961     1.0  0.68549  0.83156  0.97393  1.0000
  H   H201      1.0  0.68885  0.84654  0.98405  1.0000
  H   H202      1.0  0.70155  0.82679  0.96598  1.0000
  O   O4962     1.0  0.78245  0.83768  0.95187  1.0000
  H   H203      1.0  0.78633  0.85360  0.94447  1.0000
  H   H204      1.0  0.76437  0.83659  0.95070  1.0000
  O   O4963     1.0  0.77165  0.91708  0.95004  1.0000
  H   H205      1.0  0.75490  0.91074  0.95270  1.0000
  H   H206      1.0  0.78153  0.90328  0.94411  1.0000
  O   O4964     1.0  0.68262  0.87915  0.94037  1.0000
  H   H207      1.0  0.66790  0.88199  0.95224  1.0000
  H   H208      1.0  0.69602  0.88732  0.95062  1.0000
  O   O4965     1.0  0.35556  0.20407  0.63613  1.0000
  H   H209      1.0  0.34852  0.18957  0.64456  1.0000
  H   H210      1.0  0.34244  0.21029  0.62362  1.0000
  O   O4966     1.0  0.75678  0.98608  0.96114  1.0000
  H   H211      1.0  0.76683  0.98501  0.97870  1.0000
  H   H212      1.0  0.73965  0.98517  0.96800  1.0000
  O   O4967     1.0  0.73930  0.85588  0.10270  1.0000
  H   H213      1.0  0.73518  0.87174  0.11010  1.0000
  H   H214      1.0  0.73038  0.85476  0.08434  1.0000
  O   O4968     1.0  0.71756  0.84648  0.05146  1.0000
  H   H215      1.0  0.71507  0.85371  0.03244  1.0000
  H   H216      1.0  0.71027  0.85789  0.06502  1.0000
  O   O4969     1.0  0.65880  0.92095  0.09990  1.0000
  H   H217      1.0  0.67645  0.92498  0.10025  1.0000
  H   H218      1.0  0.65335  0.92292  0.11993  1.0000
  O   O4970     1.0  0.28218  0.73654  0.74892  1.0000
  H   H219      1.0  0.29923  0.73091  0.74651  1.0000
  H   H220      1.0  0.28168  0.74298  0.76856  1.0000
  O   O4971     1.0  0.57534  0.90752  0.10421  1.0000
  H   H221      1.0  0.57440  0.92112  0.09099  1.0000
  H   H222      1.0  0.58728  0.91244  0.11896  1.0000
  O   O4972     1.0  0.69513  0.88220  0.08870  1.0000
  H   H223      1.0  0.68109  0.87476  0.09859  1.0000
  H   H224      1.0  0.70590  0.88779  0.10431  1.0000
  O   O4973     1.0  0.78746  0.92414  0.07634  1.0000
  H   H225      1.0  0.78789  0.94068  0.06959  1.0000
  H   H226      1.0  0.76995  0.92108  0.08043  1.0000
  O   O4974     1.0  0.32381  0.58887  0.87541  1.0000
  H   H227      1.0  0.31053  0.57864  0.86806  1.0000
  H   H228      1.0  0.33465  0.57804  0.88615  1.0000
  O   O4975     1.0  0.26222  0.73652  0.83793  1.0000
  H   H229      1.0  0.27098  0.74446  0.82211  1.0000
  H   H230      1.0  0.24517  0.74236  0.83648  1.0000
  O   O4976     1.0  0.69533  0.23734  0.98563  1.0000
  H   H231      1.0  0.70753  0.22916  0.97352  1.0000
  H   H232      1.0  0.67962  0.22941  0.98124  1.0000
  O   O4977     1.0  0.23056  0.65438  0.85336  1.0000
  H   H233      1.0  0.22919  0.64077  0.84021  1.0000
  H   H234      1.0  0.22297  0.66764  0.84283  1.0000
  O   O4978     1.0  0.63858  0.17761  0.19752  1.0000
  H   H235      1.0  0.63460  0.16177  0.18995  1.0000
  H   H236      1.0  0.65620  0.17974  0.19319  1.0000
  O   O4979     1.0  0.28037  0.55955  0.79103  1.0000
  H   H237      1.0  0.27005  0.56738  0.80560  1.0000
  H   H238      1.0  0.29114  0.54889  0.80211  1.0000
  O   O4980     1.0  0.29252  0.63343  0.89459  1.0000
  H   H239      1.0  0.29969  0.63093  0.87540  1.0000
  H   H240      1.0  0.27602  0.62624  0.89343  1.0000
  O   O4981     1.0  0.61335  0.12718  0.24327  1.0000
  H   H241      1.0  0.60913  0.13118  0.26326  1.0000
  H   H242      1.0  0.59944  0.13327  0.23188  1.0000
  O   O4982     1.0  0.61265  0.17198  0.26934  1.0000
  H   H243      1.0  0.61655  0.15674  0.26010  1.0000
  H   H244      1.0  0.62877  0.17965  0.27215  1.0000
  O   O4983     1.0  0.52951  0.14020  0.00682  1.0000
  H   H245      1.0  0.52617  0.12464  0.99805  1.0000
  H   H246      1.0  0.54756  0.14183  0.00601  1.0000
  O   O4984     1.0  0.65061  0.16059  0.94715  1.0000
  H   H247      1.0  0.64019  0.15367  0.96229  1.0000
  H   H248      1.0  0.65342  0.17704  0.95341  1.0000
  O   O4985     1.0  0.97646  0.04544  0.91647  1.0000
  H   H249      1.0  0.97221  0.02913  0.92215  1.0000
  H   H250      1.0  0.96497  0.05549  0.92740  1.0000
  O   O4986     1.0  0.64275  0.20397  0.01626  1.0000
  H   H251      1.0  0.64938  0.21547  0.03016  1.0000
  H   H252      1.0  0.65114  0.20780  0.99810  1.0000
  O   O4987     1.0  0.70103  0.21622  0.07798  1.0000
  H   H253      1.0  0.68484  0.22057  0.07003  1.0000
  H   H254      1.0  0.70502  0.22913  0.09143  1.0000
  O   O4988     1.0  0.67925  0.24903  0.16049  1.0000
  H   H255      1.0  0.68940  0.25541  0.14476  1.0000
  H   H256      1.0  0.68109  0.23171  0.15892  1.0000
  O   O4989     1.0  0.79349  0.28948  0.11609  1.0000
  H   H257      1.0  0.78306  0.27536  0.11350  1.0000
  H   H258      1.0  0.80912  0.28539  0.10658  1.0000
  O   O4990     1.0  0.76606  0.26524  0.06875  1.0000
  H   H259      1.0  0.77331  0.28035  0.06235  1.0000
  H   H260      1.0  0.76141  0.26806  0.08890  1.0000
  O   O4991     1.0  0.94601  0.43716  0.10899  1.0000
  H   H261      1.0  0.93679  0.42720  0.12262  1.0000
  H   H262      1.0  0.94330  0.45348  0.11578  1.0000
  O   O4992     1.0  0.95701  0.52738  0.09342  1.0000
  H   H263      1.0  0.94665  0.54165  0.09499  1.0000
  H   H264      1.0  0.94857  0.51546  0.10532  1.0000
  O   O4993     1.0  0.07920  0.73279  0.12973  1.0000
  H   H265      1.0  0.07471  0.73957  0.14850  1.0000
  H   H266      1.0  0.08237  0.71592  0.13373  1.0000
  O   O4994     1.0  0.96001  0.28112  0.07794  1.0000
  H   H267      1.0  0.96368  0.29072  0.09507  1.0000
  H   H268      1.0  0.97426  0.28361  0.06520  1.0000
  O   O4995     1.0  0.85301  0.30103  0.21198  1.0000
  H   H269      1.0  0.86707  0.29189  0.20452  1.0000
  H   H270      1.0  0.84750  0.31067  0.19556  1.0000
  O   O4996     1.0  0.97168  0.40506  0.15966  1.0000
  H   H271      1.0  0.95919  0.39449  0.15121  1.0000
  H   H272      1.0  0.98274  0.40896  0.14358  1.0000
  O   O4997     1.0  0.89307  0.73739  0.63412  1.0000
  H   H273      1.0  0.88513  0.73670  0.61512  1.0000
  H   H274      1.0  0.91082  0.73837  0.62990  1.0000
  O   O4998     1.0  0.91360  0.39704  0.08584  1.0000
  H   H275      1.0  0.89847  0.39033  0.07746  1.0000
  H   H276      1.0  0.91863  0.38544  0.10051  1.0000
  O   O4999     1.0  0.84462  0.12166  0.12130  1.0000
  H   H277      1.0  0.85157  0.11373  0.13831  1.0000
  H   H278      1.0  0.84888  0.11116  0.10516  1.0000
  O   O5000     1.0  0.94257  0.34203  0.90507  1.0000
  H   H279      1.0  0.94509  0.33666  0.92498  1.0000
  H   H280      1.0  0.93680  0.32781  0.89481  1.0000
  O   O5001     1.0  0.95646  0.30347  0.01047  1.0000
  H   H281      1.0  0.95075  0.29144  0.99666  1.0000
  H   H282      1.0  0.94194  0.30679  0.02250  1.0000
  O   O5002     1.0  0.89613  0.06595  0.08356  1.0000
  H   H283      1.0  0.87835  0.06452  0.08738  1.0000
  H   H284      1.0  0.90198  0.07766  0.09767  1.0000
  O   O5003     1.0  0.94763  0.32151  0.95796  1.0000
  H   H285      1.0  0.95042  0.30948  0.94299  1.0000
  H   H286      1.0  0.95130  0.31327  0.97610  1.0000
  O   O5004     1.0  0.88165  0.05427  0.13836  1.0000
  H   H287      1.0  0.88679  0.05864  0.11879  1.0000
  H   H288      1.0  0.87679  0.06938  0.14731  1.0000
  O   O5005     1.0  0.84603  0.32360  0.15806  1.0000
  H   H289      1.0  0.84289  0.33184  0.13978  1.0000
  H   H290      1.0  0.86388  0.32535  0.16119  1.0000
  O   O5006     1.0  0.97413  0.31124  0.12827  1.0000
  H   H291      1.0  0.95689  0.30653  0.13150  1.0000
  H   H292      1.0  0.97417  0.32855  0.13095  1.0000
  O   O5007     1.0  0.92959  0.28707  0.13477  1.0000
  H   H293      1.0  0.91651  0.28418  0.14900  1.0000
  H   H294      1.0  0.92529  0.30244  0.12611  1.0000
  O   O5008     1.0  0.91724  0.33095  0.11012  1.0000
  H   H295      1.0  0.92819  0.34362  0.11710  1.0000
  H   H296      1.0  0.90148  0.33898  0.10624  1.0000
  O   O5009     1.0  0.16104  0.06040  0.08963  1.0000
  H   H297      1.0  0.16088  0.06248  0.11062  1.0000
  H   H298      1.0  0.14523  0.05263  0.08526  1.0000
  O   O5010     1.0  0.92658  0.32332  0.05331  1.0000
  H   H299      1.0  0.92097  0.32288  0.07341  1.0000
  H   H300      1.0  0.93721  0.33743  0.05222  1.0000
  O   O5011     1.0  0.95457  0.36314  0.05785  1.0000
  H   H301      1.0  0.97185  0.36726  0.05377  1.0000
  H   H302      1.0  0.94491  0.37350  0.04509  1.0000
  O   O5012     1.0  0.90145  0.13077  0.04247  1.0000
  H   H303      1.0  0.91905  0.12670  0.04389  1.0000
  H   H304      1.0  0.89360  0.11633  0.03489  1.0000
  O   O5013     1.0  0.11648  0.36669  0.74433  1.0000
  H   H305      1.0  0.11551  0.38109  0.75622  1.0000
  H   H306      1.0  0.11453  0.35354  0.75805  1.0000
  O   O5014     1.0  0.89019  0.19987  0.98169  1.0000
  H   H307      1.0  0.88467  0.20195  0.00167  1.0000
  H   H308      1.0  0.90736  0.19440  0.98336  1.0000
  O   O5015     1.0  0.95593  0.15513  0.05920  1.0000
  H   H309      1.0  0.94569  0.16165  0.04363  1.0000
  H   H310      1.0  0.95096  0.13838  0.06056  1.0000
  O   O5016     1.0  0.08378  0.28935  0.81522  1.0000
  H   H311      1.0  0.09049  0.27724  0.80215  1.0000
  H   H312      1.0  0.06600  0.28960  0.81106  1.0000
  O   O5017     1.0  0.02514  0.05615  0.03397  1.0000
  H   H313      1.0  0.01707  0.04502  0.02068  1.0000
  H   H314      1.0  0.01161  0.06597  0.04151  1.0000
  O   O5018     1.0  0.12264  0.29962  0.77748  1.0000
  H   H315      1.0  0.11165  0.28589  0.77996  1.0000
  H   H316      1.0  0.11337  0.31305  0.78557  1.0000
  O   O5019     1.0  0.97152  0.34802  0.84584  1.0000
  H   H317      1.0  0.97096  0.33069  0.84338  1.0000
  H   H318      1.0  0.97639  0.35412  0.82686  1.0000
  O   O5020     1.0  0.06707  0.08335  0.03673  1.0000
  H   H319      1.0  0.05183  0.07454  0.03253  1.0000
  H   H320      1.0  0.07100  0.07923  0.05676  1.0000
  O   O5021     1.0  0.03832  0.34197  0.85805  1.0000
  H   H321      1.0  0.03733  0.35571  0.84506  1.0000
  H   H322      1.0  0.02706  0.34589  0.87393  1.0000
  O   O5022     1.0  0.08980  0.32210  0.86240  1.0000
  H   H323      1.0  0.09155  0.31462  0.84340  1.0000
  H   H324      1.0  0.07825  0.31175  0.87283  1.0000
  O   O5023     1.0  0.06642  0.26646  0.93502  1.0000
  H   H325      1.0  0.06203  0.27436  0.91687  1.0000
  H   H326      1.0  0.05363  0.27158  0.94867  1.0000
  O   O5024     1.0  0.05733  0.28729  0.88079  1.0000
  H   H327      1.0  0.05696  0.29704  0.89832  1.0000
  H   H328      1.0  0.04066  0.28882  0.87267  1.0000
  O   O5025     1.0  0.03496  0.27615  0.97947  1.0000
  H   H329      1.0  0.02431  0.27719  0.96240  1.0000
  H   H330      1.0  0.03247  0.29133  0.98950  1.0000
  O   O5026     1.0  0.16263  0.01638  0.78129  1.0000
  H   H331      1.0  0.16972  0.00033  0.78052  1.0000
  H   H332      1.0  0.16605  0.02190  0.80095  1.0000
  O   O5027     1.0  0.99932  0.30120  0.94254  1.0000
  H   H333      1.0  0.99434  0.31481  0.93064  1.0000
  H   H334      1.0  0.01745  0.30148  0.94212  1.0000
  O   O5028     1.0  0.01607  0.32245  0.99088  1.0000
  H   H335      1.0  0.01116  0.32013  0.01104  1.0000
  H   H336      1.0  0.00561  0.31138  0.97999  1.0000
  O   O5029     1.0  0.23948  0.93519  0.62410  1.0000
  H   H337      1.0  0.25450  0.94416  0.62884  1.0000
  H   H338      1.0  0.22598  0.94662  0.62684  1.0000
  O   O5030     1.0  0.18950  0.23506  0.09999  1.0000
  H   H339      1.0  0.19255  0.24620  0.08410  1.0000
  H   H340      1.0  0.18358  0.24511  0.11584  1.0000
  O   O5031     1.0  0.03897  0.01472  0.30343  1.0000
  H   H341      1.0  0.02931  0.00219  0.31291  1.0000
  H   H342      1.0  0.04531  0.00722  0.28582  1.0000
  O   O5032     1.0  0.09586  0.28319  0.05565  1.0000
  H   H343      1.0  0.09215  0.28024  0.07604  1.0000
  H   H344      1.0  0.11135  0.29227  0.05591  1.0000
  O   O5033     1.0  0.13718  0.30673  0.07351  1.0000
  H   H345      1.0  0.15478  0.30281  0.07546  1.0000
  H   H346      1.0  0.13658  0.31841  0.05781  1.0000
  O   O5034     1.0  0.92540  0.56604  0.37656  1.0000
  H   H347      1.0  0.93595  0.57783  0.38614  1.0000
  H   H348      1.0  0.93549  0.56008  0.36054  1.0000
  O   O5035     1.0  0.15109  0.26195  0.06376  1.0000
  H   H349      1.0  0.14623  0.27851  0.06728  1.0000
  H   H350      1.0  0.16864  0.26287  0.05851  1.0000
  O   O5036     1.0  0.18639  0.27985  0.94145  1.0000
  H   H351      1.0  0.19093  0.27502  0.96107  1.0000
  H   H352      1.0  0.20221  0.28111  0.93122  1.0000
  O   O5037     1.0  0.24249  0.26818  0.95868  1.0000
  H   H353      1.0  0.25734  0.26413  0.96978  1.0000
  H   H354      1.0  0.24883  0.27375  0.94005  1.0000
  O   O5038     1.0  0.23444  0.23662  0.91384  1.0000
  H   H355      1.0  0.22985  0.25092  0.90295  1.0000
  H   H356      1.0  0.23880  0.24255  0.93307  1.0000
  O   O5039     1.0  0.55504  0.03838  0.24652  1.0000
  H   H357      1.0  0.54727  0.03698  0.26555  1.0000
  H   H358      1.0  0.54189  0.04451  0.23399  1.0000
  O   O5040     1.0  0.47065  0.12591  0.18557  1.0000
  H   H359      1.0  0.47678  0.13861  0.19820  1.0000
  H   H360      1.0  0.46583  0.11309  0.19878  1.0000
  O   O5041     1.0  0.45458  0.08562  0.20941  1.0000
  H   H361      1.0  0.44392  0.08449  0.19236  1.0000
  H   H362      1.0  0.46384  0.07061  0.20958  1.0000
  O   O5042     1.0  0.51530  0.21097  0.23416  1.0000
  H   H363      1.0  0.49879  0.20662  0.24115  1.0000
  H   H364      1.0  0.51617  0.20416  0.21471  1.0000
  O   O5043     1.0  0.64939  0.81181  0.26061  1.0000
  H   H365      1.0  0.64478  0.82827  0.26518  1.0000
  H   H366      1.0  0.66240  0.81330  0.24598  1.0000
  O   O5044     1.0  0.40761  0.15711  0.24351  1.0000
  H   H367      1.0  0.41735  0.16170  0.22656  1.0000
  H   H368      1.0  0.41378  0.16739  0.25902  1.0000
  O   O5045     1.0  0.62162  0.90793  0.26558  1.0000
  H   H369      1.0  0.62868  0.90430  0.28455  1.0000
  H   H370      1.0  0.60676  0.89797  0.26439  1.0000
  O   O5046     1.0  0.30799  0.31163  0.09379  1.0000
  H   H371      1.0  0.32216  0.30447  0.08383  1.0000
  H   H372      1.0  0.30860  0.30492  0.11330  1.0000
  O   O5047     1.0  0.27504  0.28853  0.14856  1.0000
  H   H373      1.0  0.26744  0.29271  0.13004  1.0000
  H   H374      1.0  0.29277  0.28733  0.14432  1.0000
  O   O5048     1.0  0.38728  0.19030  0.46732  1.0000
  H   H375      1.0  0.38977  0.19972  0.48489  1.0000
  H   H376      1.0  0.39586  0.17525  0.47112  1.0000
  O   O5049     1.0  0.42190  0.24926  0.05090  1.0000
  H   H377      1.0  0.42285  0.26666  0.05210  1.0000
  H   H378      1.0  0.43027  0.24363  0.06837  1.0000
  O   O5050     1.0  0.03004  0.20762  0.04436  1.0000
  H   H379      1.0  0.02834  0.22403  0.05129  1.0000
  H   H380      1.0  0.03290  0.20923  0.02357  1.0000
  O   O5051     1.0  0.41781  0.26406  0.22362  1.0000
  H   H381      1.0  0.43472  0.25789  0.22527  1.0000
  H   H382      1.0  0.41960  0.27903  0.21295  1.0000
  O   O5052     1.0  0.99391  0.10696  0.37986  1.0000
  H   H383      1.0  0.99546  0.09109  0.38848  1.0000
  H   H384      1.0  0.97603  0.10982  0.37894  1.0000
  O   O5053     1.0  0.42754  0.21963  0.16881  1.0000
  H   H385      1.0  0.40968  0.22174  0.16613  1.0000
  H   H386      1.0  0.43398  0.21704  0.14929  1.0000
  O   O5054     1.0  0.43981  0.26534  0.16299  1.0000
  H   H387      1.0  0.45030  0.27166  0.17845  1.0000
  H   H388      1.0  0.43705  0.24865  0.16829  1.0000
  O   O5055     1.0  0.47939  0.22919  0.16774  1.0000
  H   H389      1.0  0.46155  0.23235  0.16785  1.0000
  H   H390      1.0  0.48068  0.21179  0.16840  1.0000
  O   O5056     1.0  0.41039  0.29570  0.13185  1.0000
  H   H391      1.0  0.42278  0.28675  0.14285  1.0000
  H   H392      1.0  0.39610  0.28499  0.13075  1.0000
  O   O5057     1.0  0.42452  0.30755  0.19236  1.0000
  H   H393      1.0  0.42245  0.29443  0.17863  1.0000
  H   H394      1.0  0.44089  0.30489  0.20089  1.0000
  O   O5058     1.0  0.35781  0.24207  0.23751  1.0000
  H   H395      1.0  0.34031  0.24529  0.24145  1.0000
  H   H396      1.0  0.36007  0.24663  0.21727  1.0000
  O   O5059     1.0  0.28751  0.17642  0.25598  1.0000
  H   H397      1.0  0.28578  0.19364  0.25319  1.0000
  H   H398      1.0  0.28171  0.16944  0.23782  1.0000
  O   O5060     1.0  0.31604  0.21264  0.27293  1.0000
  H   H399      1.0  0.31296  0.22694  0.26135  1.0000
  H   H400      1.0  0.30476  0.20066  0.26497  1.0000
  O   O5061     1.0  0.33425  0.34042  0.60027  1.0000
  H   H401      1.0  0.33227  0.32743  0.61420  1.0000
  H   H402      1.0  0.31829  0.34872  0.60050  1.0000
  O   O5062     1.0  0.17056  0.20333  0.14818  1.0000
  H   H403      1.0  0.16334  0.21872  0.14281  1.0000
  H   H404      1.0  0.18531  0.20745  0.15944  1.0000
  O   O5063     1.0  0.99711  0.17206  0.14479  1.0000
  H   H405      1.0  0.00574  0.18518  0.13512  1.0000
  H   H406      1.0  0.00938  0.16549  0.15818  1.0000
  O   O5064     1.0  0.28433  0.16109  0.13918  1.0000
  H   H407      1.0  0.29853  0.15047  0.13642  1.0000
  H   H408      1.0  0.28758  0.16904  0.15762  1.0000
  O   O5065     1.0  0.25624  0.11743  0.17655  1.0000
  H   H409      1.0  0.24623  0.12970  0.16706  1.0000
  H   H410      1.0  0.27205  0.12530  0.18063  1.0000
  O   O5066     1.0  0.58267  0.54914  0.27100  1.0000
  H   H411      1.0  0.56842  0.55718  0.27974  1.0000
  H   H412      1.0  0.59511  0.56171  0.26876  1.0000
  O   O5067     1.0  0.35570  0.17312  0.21017  1.0000
  H   H413      1.0  0.36648  0.18707  0.20822  1.0000
  H   H414      1.0  0.34039  0.17766  0.20026  1.0000
  O   O5068     1.0  0.55513  0.63420  0.27891  1.0000
  H   H415      1.0  0.54893  0.64120  0.29688  1.0000
  H   H416      1.0  0.54360  0.62118  0.27470  1.0000
  O   O5069     1.0  0.10851  0.18017  0.27902  1.0000
  H   H417      1.0  0.09569  0.16869  0.27352  1.0000
  H   H418      1.0  0.11901  0.18156  0.26186  1.0000
  O   O5070     1.0  0.45427  0.68530  0.31095  1.0000
  H   H419      1.0  0.46873  0.68109  0.32265  1.0000
  H   H420      1.0  0.45930  0.68183  0.29108  1.0000
  O   O5071     1.0  0.03706  0.12109  0.23031  1.0000
  H   H421      1.0  0.02729  0.12777  0.21444  1.0000
  H   H422      1.0  0.05282  0.12971  0.22951  1.0000
  O   O5072     1.0  0.44066  0.56008  0.23364  1.0000
  H   H423      1.0  0.45552  0.56798  0.22618  1.0000
  H   H424      1.0  0.43312  0.55262  0.21666  1.0000
  O   O5073     1.0  0.15521  0.15792  0.20509  1.0000
  H   H425      1.0  0.13971  0.16304  0.19603  1.0000
  H   H426      1.0  0.16557  0.15262  0.18897  1.0000
  O   O5074     1.0  0.14518  0.19362  0.24233  1.0000
  H   H427      1.0  0.14447  0.20690  0.22863  1.0000
  H   H428      1.0  0.14881  0.17965  0.23039  1.0000
  O   O5075     1.0  0.46158  0.59915  0.10896  1.0000
  H   H429      1.0  0.47205  0.61208  0.11622  1.0000
  H   H430      1.0  0.45768  0.58962  0.12608  1.0000
  O   O5076     1.0  0.14503  0.22414  0.19731  1.0000
  H   H431      1.0  0.15947  0.22215  0.20989  1.0000
  H   H432      1.0  0.15034  0.21776  0.17863  1.0000
  O   O5077     1.0  0.50632  0.63476  0.18861  1.0000
  H   H433      1.0  0.51643  0.63742  0.17135  1.0000
  H   H434      1.0  0.50636  0.65014  0.19862  1.0000
  O   O5078     1.0  0.27831  0.18964  0.08470  1.0000
  H   H435      1.0  0.28986  0.19829  0.09719  1.0000
  H   H436      1.0  0.26376  0.20002  0.08346  1.0000
  O   O5079     1.0  0.75542  0.02912  0.06814  1.0000
  H   H437      1.0  0.76003  0.02471  0.04840  1.0000
  H   H438      1.0  0.73793  0.02466  0.06974  1.0000
  O   O5080     1.0  0.73882  0.02100  0.01312  1.0000
  H   H439      1.0  0.75610  0.02116  0.00670  1.0000
  H   H440      1.0  0.73972  0.02376  0.03397  1.0000
  O   O5081     1.0  0.48495  0.54302  0.09803  1.0000
  H   H441      1.0  0.48386  0.54727  0.11850  1.0000
  H   H442      1.0  0.48534  0.55834  0.08792  1.0000
  O   O5082     1.0  0.79732  0.00257  0.58017  1.0000
  H   H443      1.0  0.81191  0.99818  0.56878  1.0000
  H   H444      1.0  0.80113  0.99707  0.59974  1.0000
  O   O5083     1.0  0.74681  0.12534  0.93383  1.0000
  H   H445      1.0  0.73156  0.12097  0.92368  1.0000
  H   H446      1.0  0.74511  0.14245  0.93752  1.0000
  O   O5084     1.0  0.43685  0.30249  0.01224  1.0000
  H   H447      1.0  0.43747  0.30108  0.99118  1.0000
  H   H448      1.0  0.42887  0.31790  0.01573  1.0000
  O   O5085     1.0  0.22877  0.54732  0.50696  1.0000
  H   H449      1.0  0.21677  0.55744  0.51703  1.0000
  H   H450      1.0  0.22223  0.53113  0.50911  1.0000
  O   O5086     1.0  0.32632  0.28829  0.02939  1.0000
  H   H451      1.0  0.32166  0.27167  0.03286  1.0000
  H   H452      1.0  0.33879  0.28747  0.01406  1.0000
  O   O5087     1.0  0.36104  0.29924  0.98849  1.0000
  H   H453      1.0  0.35252  0.30988  0.97499  1.0000
  H   H454      1.0  0.36484  0.30931  0.00518  1.0000
  O   O5088     1.0  0.41334  0.34789  0.02059  1.0000
  H   H455      1.0  0.39549  0.34545  0.01827  1.0000
  H   H456      1.0  0.41875  0.35451  0.00207  1.0000
  O   O5089     1.0  0.34826  0.15135  0.51809  1.0000
  H   H457      1.0  0.35110  0.16753  0.52531  1.0000
  H   H458      1.0  0.33096  0.15138  0.51172  1.0000
  O   O5090     1.0  0.43753  0.14858  0.52141  1.0000
  H   H459      1.0  0.42289  0.15690  0.52878  1.0000
  H   H460      1.0  0.44920  0.16133  0.51657  1.0000
  O   O5091     1.0  0.34311  0.34795  0.35641  1.0000
  H   H461      1.0  0.35235  0.33463  0.36481  1.0000
  H   H462      1.0  0.32991  0.35120  0.37036  1.0000
  O   O5092     1.0  0.69167  0.05315  0.05610  1.0000
  H   H463      1.0  0.70579  0.04778  0.06767  1.0000
  H   H464      1.0  0.67725  0.04575  0.06529  1.0000
  O   O5093     1.0  0.74164  0.07285  0.13129  1.0000
  H   H465      1.0  0.74681  0.07720  0.11172  1.0000
  H   H466      1.0  0.72899  0.06056  0.12847  1.0000
  O   O5094     1.0  0.73243  0.98288  0.09686  1.0000
  H   H467      1.0  0.74641  0.98162  0.08347  1.0000
  H   H468      1.0  0.72725  0.99958  0.09559  1.0000
  O   O5095     1.0  0.63313  0.06405  0.99466  1.0000
  H   H469      1.0  0.63702  0.06043  0.01484  1.0000
  H   H470      1.0  0.62233  0.05098  0.98849  1.0000
  O   O5096     1.0  0.73230  0.11212  0.99173  1.0000
  H   H471      1.0  0.71642  0.11337  0.98163  1.0000
  H   H472      1.0  0.73874  0.09645  0.98623  1.0000
  O   O5097     1.0  0.70237  0.10007  0.08992  1.0000
  H   H473      1.0  0.71759  0.09579  0.07965  1.0000
  H   H474      1.0  0.69090  0.10504  0.07469  1.0000
  O   O5098     1.0  0.15155  0.61706  0.82708  1.0000
  H   H475      1.0  0.13700  0.62679  0.82253  1.0000
  H   H476      1.0  0.16396  0.62853  0.83377  1.0000
  O   O5099     1.0  0.67400  0.11289  0.04504  1.0000
  H   H477      1.0  0.67545  0.10185  0.02874  1.0000
  H   H478      1.0  0.66349  0.10452  0.05897  1.0000
  O   O5100     1.0  0.85792  0.13843  0.99418  1.0000
  H   H479      1.0  0.84184  0.13165  0.99950  1.0000
  H   H480      1.0  0.85992  0.15217  0.00702  1.0000
  O   O5101     1.0  0.77222  0.15759  0.03851  1.0000
  H   H481      1.0  0.77573  0.17346  0.04631  1.0000
  H   H482      1.0  0.78853  0.15105  0.03371  1.0000
  O   O5102     1.0  0.76083  0.06927  0.98418  1.0000
  H   H483      1.0  0.77342  0.08146  0.98785  1.0000
  H   H484      1.0  0.76687  0.06072  0.96714  1.0000
  O   O5103     1.0  0.76692  0.03951  0.93941  1.0000
  H   H485      1.0  0.75234  0.03031  0.93357  1.0000
  H   H486      1.0  0.76382  0.05558  0.93198  1.0000
  O   O5104     1.0  0.38840  0.97404  0.79641  1.0000
  H   H487      1.0  0.39722  0.98406  0.81034  1.0000
  H   H488      1.0  0.39137  0.95771  0.80305  1.0000
  O   O5105     1.0  0.79313  0.19006  0.97336  1.0000
  H   H489      1.0  0.80383  0.19512  0.95743  1.0000
  H   H490      1.0  0.79541  0.17277  0.97443  1.0000
  O   O5106     1.0  0.80431  0.12959  0.08047  1.0000
  H   H491      1.0  0.80787  0.13088  0.05980  1.0000
  H   H492      1.0  0.79118  0.11759  0.08172  1.0000
  O   O5107     1.0  0.32562  0.08888  0.32983  1.0000
  H   H493      1.0  0.30881  0.09116  0.33728  1.0000
  H   H494      1.0  0.32327  0.08121  0.31103  1.0000
  O   O5108     1.0  0.34474  0.02676  0.34411  1.0000
  H   H495      1.0  0.35548  0.01326  0.34888  1.0000
  H   H496      1.0  0.35595  0.04046  0.34321  1.0000
  O   O5109     1.0  0.35638  0.04610  0.03706  1.0000
  H   H497      1.0  0.37290  0.03888  0.03677  1.0000
  H   H498      1.0  0.35225  0.04736  0.05759  1.0000
  O   O5110     1.0  0.30547  0.24328  0.04881  1.0000
  H   H499      1.0  0.31464  0.22823  0.04962  1.0000
  H   H500      1.0  0.30698  0.24992  0.06829  1.0000
  O   O5111     1.0  0.36634  0.16478  0.11659  1.0000
  H   H501      1.0  0.36970  0.17897  0.12827  1.0000
  H   H502      1.0  0.37568  0.15203  0.12607  1.0000
  O   O5112     1.0  0.27785  0.32144  0.25331  1.0000
  H   H503      1.0  0.26532  0.33349  0.24876  1.0000
  H   H504      1.0  0.29183  0.33055  0.26103  1.0000
  O   O5113     1.0  0.38953  0.19447  0.08014  1.0000
  H   H505      1.0  0.38170  0.18292  0.09310  1.0000
  H   H506      1.0  0.38029  0.20927  0.08326  1.0000
  O   O5114     1.0  0.30861  0.00301  0.08681  1.0000
  H   H507      1.0  0.29769  0.99445  0.07348  1.0000
  H   H508      1.0  0.30791  0.01962  0.08035  1.0000
  O   O5115     1.0  0.34509  0.14318  0.05929  1.0000
  H   H509      1.0  0.34325  0.15819  0.04870  1.0000
  H   H510      1.0  0.33398  0.14481  0.07589  1.0000
  O   O5116     1.0  0.81902  0.01235  0.22935  1.0000
  H   H511      1.0  0.82823  0.02129  0.24400  1.0000
  H   H512      1.0  0.80898  0.00104  0.24041  1.0000
  O   O5117     1.0  0.64459  0.66375  0.05145  1.0000
  H   H513      1.0  0.65674  0.66340  0.06715  1.0000
  H   H514      1.0  0.62903  0.65880  0.06051  1.0000
  O   O5118     1.0  0.34897  0.17905  0.02048  1.0000
  H   H515      1.0  0.33091  0.18072  0.02047  1.0000
  H   H516      1.0  0.35512  0.19491  0.02563  1.0000
  O   O5119     1.0  0.29749  0.09239  0.08499  1.0000
  H   H517      1.0  0.30643  0.10565  0.09396  1.0000
  H   H518      1.0  0.30786  0.07841  0.08878  1.0000
  O   O5120     1.0  0.61599  0.50935  0.06667  1.0000
  H   H519      1.0  0.62881  0.50516  0.05260  1.0000
  H   H520      1.0  0.62519  0.51421  0.08392  1.0000
  O   O5121     1.0  0.43601  0.03751  0.25619  1.0000
  H   H521      1.0  0.42456  0.02596  0.26474  1.0000
  H   H522      1.0  0.44225  0.02962  0.23879  1.0000
  O   O5122     1.0  0.35966  0.14285  0.44815  1.0000
  H   H523      1.0  0.35547  0.14194  0.42760  1.0000
  H   H524      1.0  0.34649  0.15261  0.45662  1.0000
  O   O5123     1.0  0.43542  0.98191  0.33547  1.0000
  H   H525      1.0  0.45177  0.98136  0.32632  1.0000
  H   H526      1.0  0.42416  0.97530  0.32096  1.0000
  O   O5124     1.0  0.69659  0.67639  0.74350  1.0000
  H   H527      1.0  0.69151  0.69035  0.75473  1.0000
  H   H528      1.0  0.69261  0.68055  0.72349  1.0000
  O   O5125     1.0  0.36080  0.92643  0.23103  1.0000
  H   H529      1.0  0.36090  0.91032  0.22289  1.0000
  H   H530      1.0  0.36042  0.93697  0.21418  1.0000
  O   O5126     1.0  0.40682  0.90475  0.23632  1.0000
  H   H531      1.0  0.39008  0.91127  0.23833  1.0000
  H   H532      1.0  0.41197  0.90937  0.21683  1.0000
  O   O5127     1.0  0.41132  0.86524  0.20050  1.0000
  H   H533      1.0  0.41206  0.86964  0.18006  1.0000
  H   H534      1.0  0.40977  0.88045  0.21071  1.0000
  O   O5128     1.0  0.25066  0.93781  0.81172  1.0000
  H   H535      1.0  0.25577  0.95210  0.80113  1.0000
  H   H536      1.0  0.25073  0.92511  0.79721  1.0000
  O   O5129     1.0  0.44181  0.00051  0.21342  1.0000
  H   H537      1.0  0.43482  0.99843  0.23277  1.0000
  H   H538      1.0  0.42737  0.00139  0.20067  1.0000
  O   O5130     1.0  0.24690  0.98499  0.84128  1.0000
  H   H539      1.0  0.25577  0.97140  0.83297  1.0000
  H   H540      1.0  0.22936  0.98119  0.83844  1.0000
  O   O5131     1.0  0.35956  0.14095  0.33804  1.0000
  H   H541      1.0  0.34940  0.14234  0.35548  1.0000
  H   H542      1.0  0.34756  0.13927  0.32231  1.0000
  O   O5132     1.0  0.52128  0.07991  0.10886  1.0000
  H   H543      1.0  0.51888  0.07731  0.12958  1.0000
  H   H544      1.0  0.53209  0.06683  0.10274  1.0000
  O   O5133     1.0  0.35247  0.02277  0.18724  1.0000
  H   H545      1.0  0.35705  0.03671  0.17568  1.0000
  H   H546      1.0  0.36772  0.01339  0.18854  1.0000
  O   O5134     1.0  0.37763  0.05736  0.15367  1.0000
  H   H547      1.0  0.36213  0.05427  0.16399  1.0000
  H   H548      1.0  0.37248  0.06514  0.13572  1.0000
  O   O5135     1.0  0.39691  0.00200  0.18637  1.0000
  H   H549      1.0  0.39452  0.99363  0.16802  1.0000
  H   H550      1.0  0.39018  0.99113  0.20094  1.0000
  O   O5136     1.0  0.00217  0.21924  0.23436  1.0000
  H   H551      1.0  0.00481  0.23299  0.22171  1.0000
  H   H552      1.0  0.01149  0.22303  0.25191  1.0000
  O   O5137     1.0  0.07368  0.25063  0.30833  1.0000
  H   H553      1.0  0.08753  0.25289  0.29495  1.0000
  H   H554      1.0  0.07048  0.23345  0.30795  1.0000
  O   O5138     1.0  0.37716  0.07502  0.27094  1.0000
  H   H555      1.0  0.36361  0.08581  0.26578  1.0000
  H   H556      1.0  0.37861  0.06423  0.25440  1.0000
  O   O5139     1.0  0.38405  0.04396  0.22817  1.0000
  H   H557      1.0  0.37321  0.03614  0.21411  1.0000
  H   H558      1.0  0.38158  0.06103  0.22480  1.0000
  O   O5140     1.0  0.28119  0.09857  0.29005  1.0000
  H   H559      1.0  0.28645  0.11447  0.29624  1.0000
  H   H560      1.0  0.27681  0.09035  0.30799  1.0000
  O   O5141     1.0  0.27153  0.12789  0.24534  1.0000
  H   H561      1.0  0.27164  0.11678  0.26165  1.0000
  H   H562      1.0  0.28898  0.13198  0.24240  1.0000
  O   O5142     1.0  0.36620  0.99216  0.28475  1.0000
  H   H563      1.0  0.36248  0.98472  0.26612  1.0000
  H   H564      1.0  0.38379  0.99632  0.28355  1.0000
  O   O5143     1.0  0.30338  0.01163  0.21764  1.0000
  H   H565      1.0  0.28997  0.01737  0.23006  1.0000
  H   H566      1.0  0.31853  0.01511  0.22848  1.0000
  O   O5144     1.0  0.28385  0.03242  0.26676  1.0000
  H   H567      1.0  0.29991  0.03826  0.25993  1.0000
  H   H568      1.0  0.28743  0.01666  0.27484  1.0000
  O   O5145     1.0  0.24750  0.01545  0.23338  1.0000
  H   H569      1.0  0.25638  0.02861  0.24265  1.0000
  H   H570      1.0  0.23403  0.02317  0.22275  1.0000
  O   O5146     1.0  0.10605  0.78587  0.48346  1.0000
  H   H571      1.0  0.09882  0.80014  0.47466  1.0000
  H   H572      1.0  0.09633  0.78335  0.50105  1.0000
  O   O5147     1.0  0.55693  0.22060  0.81276  1.0000
  H   H573      1.0  0.56616  0.21120  0.82697  1.0000
  H   H574      1.0  0.53951  0.21807  0.81779  1.0000
  O   O5148     1.0  0.89534  0.01146  0.51250  1.0000
  H   H575      1.0  0.88640  0.99699  0.51810  1.0000
  H   H576      1.0  0.88656  0.02437  0.52239  1.0000
  O   O5149     1.0  0.60525  0.17624  0.71866  1.0000
  H   H577      1.0  0.58905  0.18185  0.71200  1.0000
  H   H578      1.0  0.60964  0.16347  0.70519  1.0000
  O   O5150     1.0  0.48802  0.19191  0.77001  1.0000
  H   H579      1.0  0.50006  0.19508  0.75467  1.0000
  H   H580      1.0  0.49305  0.20238  0.78587  1.0000
  O   O5151     1.0  0.84079  0.10775  0.73168  1.0000
  H   H581      1.0  0.83880  0.09478  0.71772  1.0000
  H   H582      1.0  0.83367  0.10151  0.74960  1.0000
  O   O5152     1.0  0.84699  0.09015  0.67717  1.0000
  H   H583      1.0  0.83155  0.09773  0.68342  1.0000
  H   H584      1.0  0.85212  0.09930  0.66019  1.0000
  O   O5153     1.0  0.80608  0.11671  0.68550  1.0000
  H   H585      1.0  0.79502  0.12945  0.69202  1.0000
  H   H586      1.0  0.82214  0.12453  0.68289  1.0000
  O   O5154     1.0  0.97287  0.25393  0.28290  1.0000
  H   H587      1.0  0.97408  0.23984  0.29530  1.0000
  H   H588      1.0  0.97772  0.26722  0.29538  1.0000
  O   O5155     1.0  0.84946  0.04248  0.65055  1.0000
  H   H589      1.0  0.85382  0.02835  0.63922  1.0000
  H   H590      1.0  0.84152  0.05320  0.63667  1.0000
  O   O5156     1.0  0.01861  0.27158  0.27824  1.0000
  H   H591      1.0  0.00121  0.26707  0.27581  1.0000
  H   H592      1.0  0.02367  0.26383  0.29624  1.0000
  O   O5157     1.0  0.74001  0.70100  0.36753  1.0000
  H   H593      1.0  0.74123  0.70688  0.34767  1.0000
  H   H594      1.0  0.75637  0.70408  0.37588  1.0000
  O   O5158     1.0  0.85587  0.12154  0.62796  1.0000
  H   H595      1.0  0.83978  0.11508  0.62213  1.0000
  H   H596      1.0  0.85263  0.12954  0.64637  1.0000
  O   O5159     1.0  0.79328  0.72534  0.33077  1.0000
  H   H597      1.0  0.79546  0.73897  0.34374  1.0000
  H   H598      1.0  0.77552  0.72515  0.32649  1.0000
  O   O5160     1.0  0.80446  0.76322  0.36800  1.0000
  H   H599      1.0  0.79112  0.75309  0.36060  1.0000
  H   H600      1.0  0.79623  0.77407  0.38151  1.0000
  O   O5161     1.0  0.54044  0.01324  0.00723  1.0000
  H   H601      1.0  0.52844  0.00723  0.99314  1.0000
  H   H602      1.0  0.55263  0.02194  0.99564  1.0000
  O   O5162     1.0  0.55605  0.07799  0.60565  1.0000
  H   H603      1.0  0.55424  0.07299  0.58550  1.0000
  H   H604      1.0  0.57245  0.08542  0.60651  1.0000
  O   O5163     1.0  0.74542  0.16697  0.82008  1.0000
  H   H605      1.0  0.74352  0.15356  0.83343  1.0000
  H   H606      1.0  0.74595  0.18105  0.83256  1.0000
  O   O5164     1.0  0.99545  0.17005  0.01875  1.0000
  H   H607      1.0  0.99083  0.18688  0.02034  1.0000
  H   H608      1.0  0.00805  0.16775  0.03371  1.0000
  O   O5165     1.0  0.79523  0.17894  0.86270  1.0000
  H   H609      1.0  0.78277  0.19145  0.86524  1.0000
  H   H610      1.0  0.78658  0.16633  0.85211  1.0000
  O   O5166     1.0  0.78620  0.09940  0.80049  1.0000
  H   H611      1.0  0.80267  0.10237  0.79240  1.0000
  H   H612      1.0  0.78374  0.11227  0.81448  1.0000
  O   O5167     1.0  0.74496  0.22805  0.80761  1.0000
  H   H613      1.0  0.76025  0.22007  0.80160  1.0000
  H   H614      1.0  0.73448  0.22789  0.79035  1.0000
  O   O5168     1.0  0.56150  0.17387  0.15487  1.0000
  H   H615      1.0  0.56767  0.18838  0.14558  1.0000
  H   H616      1.0  0.54500  0.17148  0.14659  1.0000
  O   O5169     1.0  0.57873  0.21373  0.12952  1.0000
  H   H617      1.0  0.59558  0.21430  0.12172  1.0000
  H   H618      1.0  0.58091  0.21517  0.15044  1.0000
  O   O5170     1.0  0.43780  0.04056  0.65748  1.0000
  H   H619      1.0  0.43718  0.04188  0.63641  1.0000
  H   H620      1.0  0.42551  0.02832  0.66216  1.0000
  O   O5171     1.0  0.47325  0.96354  0.23636  1.0000
  H   H621      1.0  0.46789  0.95127  0.25004  1.0000
  H   H622      1.0  0.48988  0.96798  0.24286  1.0000
  O   O5172     1.0  0.50325  0.04791  0.02052  1.0000
  H   H623      1.0  0.50476  0.05402  0.00079  1.0000
  H   H624      1.0  0.51516  0.03477  0.02146  1.0000
  O   O5173     1.0  0.45521  0.99214  0.04686  1.0000
  H   H625      1.0  0.45041  0.99665  0.02721  1.0000
  H   H626      1.0  0.43974  0.99266  0.05788  1.0000
  O   O5174     1.0  0.73246  0.53061  0.44614  1.0000
  H   H627      1.0  0.72099  0.51722  0.44844  1.0000
  H   H628      1.0  0.72980  0.54044  0.46334  1.0000
  O   O5175     1.0  0.47979  0.03480  0.93536  1.0000
  H   H629      1.0  0.47684  0.01825  0.94115  1.0000
  H   H630      1.0  0.49419  0.03975  0.94673  1.0000
  O   O5176     1.0  0.64248  0.36693  0.81551  1.0000
  H   H631      1.0  0.62784  0.37105  0.82696  1.0000
  H   H632      1.0  0.64208  0.34951  0.81421  1.0000
  O   O5177     1.0  0.62480  0.06603  0.63879  1.0000
  H   H633      1.0  0.61784  0.05624  0.62328  1.0000
  H   H634      1.0  0.63512  0.07780  0.62882  1.0000
  O   O5178     1.0  0.65472  0.88529  0.57687  1.0000
  H   H635      1.0  0.66583  0.89544  0.56554  1.0000
  H   H636      1.0  0.64530  0.89644  0.58887  1.0000
  O   O5179     1.0  0.66239  0.92083  0.50233  1.0000
  H   H637      1.0  0.67371  0.91369  0.51641  1.0000
  H   H638      1.0  0.66529  0.93801  0.50398  1.0000
  O   O5180     1.0  0.58892  0.26939  0.80730  1.0000
  H   H639      1.0  0.60449  0.27641  0.81403  1.0000
  H   H640      1.0  0.59005  0.25258  0.81282  1.0000
  O   O5181     1.0  0.46448  0.89777  0.72545  1.0000
  H   H641      1.0  0.44904  0.90401  0.73356  1.0000
  H   H642      1.0  0.47005  0.91016  0.71205  1.0000
  O   O5182     1.0  0.12172  0.46192  0.75900  1.0000
  H   H643      1.0  0.10754  0.46818  0.74821  1.0000
  H   H644      1.0  0.12176  0.47100  0.77706  1.0000
  O   O5183     1.0  0.42248  0.92531  0.73990  1.0000
  H   H645      1.0  0.41070  0.93839  0.73715  1.0000
  H   H646      1.0  0.41221  0.91093  0.74003  1.0000
  O   O5184     1.0  0.14510  0.56327  0.78786  1.0000
  H   H647      1.0  0.14737  0.55758  0.76804  1.0000
  H   H648      1.0  0.13903  0.54933  0.79844  1.0000
  O   O5185     1.0  0.62769  0.84002  0.64236  1.0000
  H   H649      1.0  0.62233  0.84587  0.66128  1.0000
  H   H650      1.0  0.61881  0.85003  0.62847  1.0000
  O   O5186     1.0  0.61967  0.84860  0.69916  1.0000
  H   H651      1.0  0.61221  0.83860  0.71415  1.0000
  H   H652      1.0  0.61647  0.86496  0.70553  1.0000
  O   O5187     1.0  0.64147  0.90608  0.43187  1.0000
  H   H653      1.0  0.65066  0.92062  0.43656  1.0000
  H   H654      1.0  0.62730  0.91162  0.42051  1.0000
  O   O5188     1.0  0.10353  0.56895  0.75479  1.0000
  H   H655      1.0  0.11783  0.57299  0.76685  1.0000
  H   H656      1.0  0.10404  0.55155  0.75323  1.0000
  O   O5189     1.0  0.58676  0.94226  0.46728  1.0000
  H   H657      1.0  0.59504  0.93013  0.47902  1.0000
  H   H658      1.0  0.59179  0.95744  0.47593  1.0000
  O   O5190     1.0  0.56310  0.87318  0.47544  1.0000
  H   H659      1.0  0.57249  0.88421  0.48763  1.0000
  H   H660      1.0  0.57474  0.86854  0.46023  1.0000
  O   O5191     1.0  0.60555  0.86972  0.44230  1.0000
  H   H661      1.0  0.61841  0.87944  0.43316  1.0000
  H   H662      1.0  0.60255  0.87748  0.46092  1.0000
  O   O5192     1.0  0.60528  0.89996  0.49254  1.0000
  H   H663      1.0  0.61963  0.88933  0.49126  1.0000
  H   H664      1.0  0.60870  0.91006  0.50932  1.0000
  O   O5193     1.0  0.82228  0.84191  0.48909  1.0000
  H   H665      1.0  0.83387  0.84553  0.47343  1.0000
  H   H666      1.0  0.81020  0.83104  0.48041  1.0000
  O   O5194     1.0  0.80601  0.81093  0.52876  1.0000
  H   H667      1.0  0.79391  0.80605  0.51416  1.0000
  H   H668      1.0  0.81569  0.82350  0.51937  1.0000
  O   O5195     1.0  0.36361  0.06821  0.92836  1.0000
  H   H669      1.0  0.34616  0.06361  0.92683  1.0000
  H   H670      1.0  0.36557  0.08112  0.91431  1.0000
  O   O5196     1.0  0.51178  0.16873  0.94590  1.0000
  H   H671      1.0  0.50884  0.16124  0.92711  1.0000
  H   H672      1.0  0.52908  0.17393  0.94514  1.0000
  O   O5197     1.0  0.56439  0.18917  0.95688  1.0000
  H   H673      1.0  0.56989  0.20456  0.96452  1.0000
  H   H674      1.0  0.55495  0.19321  0.93950  1.0000
  O   O5198     1.0  0.74116  0.45530  0.67476  1.0000
  H   H675      1.0  0.74986  0.45815  0.69299  1.0000
  H   H676      1.0  0.72360  0.45718  0.67956  1.0000
  O   O5199     1.0  0.45828  0.07481  0.04645  1.0000
  H   H677      1.0  0.47088  0.08295  0.03488  1.0000
  H   H678      1.0  0.46704  0.06134  0.05520  1.0000
  O   O5200     1.0  0.59596  0.44559  0.73753  1.0000
  H   H679      1.0  0.60459  0.43180  0.72935  1.0000
  H   H680      1.0  0.60689  0.45122  0.75297  1.0000
  O   O5201     1.0  0.56920  0.08316  0.96764  1.0000
  H   H681      1.0  0.56626  0.09080  0.94894  1.0000
  H   H682      1.0  0.55323  0.08410  0.97761  1.0000
  O   O5202     1.0  0.70192  0.44766  0.74402  1.0000
  H   H683      1.0  0.70647  0.43549  0.72982  1.0000
  H   H684      1.0  0.68397  0.44942  0.74188  1.0000
  O   O5203     1.0  0.54953  0.17657  0.87902  1.0000
  H   H685      1.0  0.54504  0.17162  0.85943  1.0000
  H   H686      1.0  0.56741  0.17380  0.88020  1.0000
  O   O5204     1.0  0.59673  0.17531  0.90284  1.0000
  H   H687      1.0  0.59475  0.18212  0.88350  1.0000
  H   H688      1.0  0.58451  0.16243  0.90368  1.0000
  O   O5205     1.0  0.68599  0.45974  0.68178  1.0000
  H   H689      1.0  0.68233  0.44265  0.68115  1.0000
  H   H690      1.0  0.68305  0.46429  0.70191  1.0000
  O   O5206     1.0  0.54112  0.21586  0.91170  1.0000
  H   H691      1.0  0.55258  0.22546  0.90016  1.0000
  H   H692      1.0  0.54160  0.20005  0.90275  1.0000
  O   O5207     1.0  0.36779  0.44338  0.14538  1.0000
  H   H693      1.0  0.37108  0.45747  0.15725  1.0000
  H   H694      1.0  0.36092  0.44977  0.12740  1.0000
  O   O5208     1.0  0.52328  0.16646  0.82882  1.0000
  H   H695      1.0  0.52281  0.16923  0.80795  1.0000
  H   H696      1.0  0.52975  0.15024  0.83084  1.0000
  O   O5209     1.0  0.21652  0.08622  0.03616  1.0000
  H   H697      1.0  0.22900  0.07947  0.02317  1.0000
  H   H698      1.0  0.22251  0.08234  0.05556  1.0000
  O   O5210     1.0  0.24845  0.06910  0.99596  1.0000
  H   H699      1.0  0.26149  0.06174  0.98427  1.0000
  H   H700      1.0  0.23437  0.05818  0.99431  1.0000
  O   O5211     1.0  0.26028  0.64837  0.65429  1.0000
  H   H701      1.0  0.26398  0.63418  0.66583  1.0000
  H   H702      1.0  0.27383  0.65942  0.65861  1.0000
  O   O5212     1.0  0.47220  0.12492  0.96552  1.0000
  H   H703      1.0  0.47700  0.10842  0.96955  1.0000
  H   H704      1.0  0.45804  0.12355  0.95240  1.0000
  O   O5213     1.0  0.75576  0.28977  0.30717  1.0000
  H   H705      1.0  0.73980  0.29261  0.31661  1.0000
  H   H706      1.0  0.76809  0.29316  0.32213  1.0000
  O   O5214     1.0  0.41731  0.08286  0.97226  1.0000
  H   H707      1.0  0.42773  0.06951  0.97842  1.0000
  H   H708      1.0  0.41702  0.08173  0.95116  1.0000
  O   O5215     1.0  0.25121  0.13785  0.07583  1.0000
  H   H709      1.0  0.26553  0.14839  0.07347  1.0000
  H   H710      1.0  0.25036  0.12891  0.05770  1.0000
  O   O5216     1.0  0.38556  0.30956  0.86322  1.0000
  H   H711      1.0  0.38731  0.30187  0.84435  1.0000
  H   H712      1.0  0.38925  0.29694  0.87718  1.0000
  O   O5217     1.0  0.40637  0.16175  0.93286  1.0000
  H   H713      1.0  0.39799  0.14795  0.94136  1.0000
  H   H714      1.0  0.40508  0.17420  0.94760  1.0000
  O   O5218     1.0  0.25056  0.18050  0.02474  1.0000
  H   H715      1.0  0.26153  0.17049  0.03643  1.0000
  H   H716      1.0  0.23604  0.18316  0.03700  1.0000
  O   O5219     1.0  0.39819  0.26501  0.89031  1.0000
  H   H717      1.0  0.38394  0.26529  0.87722  1.0000
  H   H718      1.0  0.39919  0.24844  0.89687  1.0000
  O   O5220     1.0  0.05478  0.13803  0.12181  1.0000
  H   H719      1.0  0.05072  0.13772  0.10120  1.0000
  H   H720      1.0  0.07217  0.13312  0.12270  1.0000
  O   O5221     1.0  0.15990  0.18972  0.07311  1.0000
  H   H721      1.0  0.15085  0.17728  0.08354  1.0000
  H   H722      1.0  0.16558  0.18191  0.05539  1.0000
  O   O5222     1.0  0.36721  0.01901  0.97573  1.0000
  H   H723      1.0  0.35229  0.02633  0.96761  1.0000
  H   H724      1.0  0.38093  0.02768  0.96674  1.0000
  O   O5223     1.0  0.36663  0.98834  0.93123  1.0000
  H   H725      1.0  0.35434  0.97600  0.93551  1.0000
  H   H726      1.0  0.36610  0.99897  0.94799  1.0000
  O   O5224     1.0  0.11694  0.14465  0.04315  1.0000
  H   H727      1.0  0.10325  0.15349  0.05197  1.0000
  H   H728      1.0  0.12356  0.13483  0.05884  1.0000
  O   O5225     1.0  0.38113  0.95546  0.97323  1.0000
  H   H729      1.0  0.39462  0.94384  0.97193  1.0000
  H   H730      1.0  0.38149  0.96385  0.95469  1.0000
  O   O5226     1.0  0.34110  0.02423  0.68770  1.0000
  H   H731      1.0  0.33569  0.01171  0.67438  1.0000
  H   H732      1.0  0.35826  0.02752  0.68211  1.0000
  O   O5227     1.0  0.51822  0.10729  0.62831  1.0000
  H   H733      1.0  0.50821  0.09315  0.63250  1.0000
  H   H734      1.0  0.53342  0.10098  0.61966  1.0000
  O   O5228     1.0  0.46971  0.09328  0.64799  1.0000
  H   H735      1.0  0.48754  0.09128  0.64495  1.0000
  H   H736      1.0  0.46594  0.10892  0.63970  1.0000
  O   O5229     1.0  0.23883  0.03141  0.31406  1.0000
  H   H737      1.0  0.22417  0.03626  0.30307  1.0000
  H   H738      1.0  0.23685  0.01420  0.31670  1.0000
  O   O5230     1.0  0.50382  0.05816  0.63198  1.0000
  H   H739      1.0  0.49994  0.05306  0.61227  1.0000
  H   H740      1.0  0.49139  0.07034  0.63636  1.0000
  O   O5231     1.0  0.36646  0.95614  0.68913  1.0000
  H   H741      1.0  0.38197  0.95395  0.69977  1.0000
  H   H742      1.0  0.35811  0.96927  0.69910  1.0000
  O   O5232     1.0  0.40197  0.05671  0.59324  1.0000
  H   H743      1.0  0.41968  0.05927  0.59661  1.0000
  H   H744      1.0  0.40125  0.04250  0.58098  1.0000
  O   O5233     1.0  0.12901  0.35308  0.67990  1.0000
  H   H745      1.0  0.11557  0.34427  0.67052  1.0000
  H   H746      1.0  0.14048  0.34073  0.68656  1.0000
  O   O5234     1.0  0.41119  0.99492  0.63279  1.0000
  H   H747      1.0  0.41582  0.99338  0.61243  1.0000
  H   H748      1.0  0.39858  0.98261  0.63577  1.0000
  O   O5235     1.0  0.37774  0.95934  0.63138  1.0000
  H   H749      1.0  0.37991  0.94204  0.63008  1.0000
  H   H750      1.0  0.37336  0.96222  0.65160  1.0000
  O   O5236     1.0  0.46239  0.89145  0.65792  1.0000
  H   H751      1.0  0.45420  0.88024  0.67102  1.0000
  H   H752      1.0  0.47578  0.88219  0.64910  1.0000
  O   O5237     1.0  0.54532  0.83838  0.67878  1.0000
  H   H753      1.0  0.54353  0.82173  0.68476  1.0000
  H   H754      1.0  0.52957  0.84584  0.68410  1.0000
  O   O5238     1.0  0.52105  0.88971  0.68671  1.0000
  H   H755      1.0  0.51308  0.87440  0.69082  1.0000
  H   H756      1.0  0.53360  0.88599  0.67212  1.0000
  O   O5239     1.0  0.52560  0.15457  0.52223  1.0000
  H   H757      1.0  0.52955  0.15446  0.50159  1.0000
  H   H758      1.0  0.53396  0.16877  0.52973  1.0000
  O   O5240     1.0  0.55200  0.19518  0.53101  1.0000
  H   H759      1.0  0.53525  0.20172  0.53276  1.0000
  H   H760      1.0  0.55065  0.18304  0.51590  1.0000
  O   O5241     1.0  0.52177  0.22598  0.55706  1.0000
  H   H761      1.0  0.53247  0.23971  0.56092  1.0000
  H   H762      1.0  0.52468  0.22221  0.53669  1.0000
  O   O5242     1.0  0.53219  0.96637  0.61394  1.0000
  H   H763      1.0  0.54865  0.96639  0.62282  1.0000
  H   H764      1.0  0.53522  0.96226  0.59369  1.0000
  O   O5243     1.0  0.56742  0.15981  0.40680  1.0000
  H   H765      1.0  0.57356  0.14428  0.41327  1.0000
  H   H766      1.0  0.58219  0.16993  0.40607  1.0000
  O   O5244     1.0  0.43769  0.99729  0.51782  1.0000
  H   H767      1.0  0.45129  0.00715  0.51055  1.0000
  H   H768      1.0  0.42925  0.99159  0.50043  1.0000
  O   O5245     1.0  0.59408  0.11909  0.42571  1.0000
  H   H769      1.0  0.58249  0.12351  0.44107  1.0000
  H   H770      1.0  0.58352  0.11317  0.41009  1.0000
  O   O5246     1.0  0.60384  0.97879  0.60805  1.0000
  H   H771      1.0  0.61186  0.98882  0.59349  1.0000
  H   H772      1.0  0.59938  0.98983  0.62358  1.0000
  O   O5247     1.0  0.94177  0.80986  0.52705  1.0000
  H   H773      1.0  0.95810  0.80457  0.52043  1.0000
  H   H774      1.0  0.93007  0.80208  0.51392  1.0000
  O   O5248     1.0  0.48739  0.11793  0.53570  1.0000
  H   H775      1.0  0.48430  0.10440  0.52283  1.0000
  H   H776      1.0  0.47577  0.11566  0.55170  1.0000
  O   O5249     1.0  0.83990  0.80649  0.43875  1.0000
  H   H777      1.0  0.82238  0.81067  0.43669  1.0000
  H   H778      1.0  0.84033  0.79530  0.45497  1.0000
  O   O5250     1.0  0.54582  0.01110  0.83957  1.0000
  H   H779      1.0  0.55796  0.00622  0.85413  1.0000
  H   H780      1.0  0.53274  0.99905  0.84076  1.0000
  O   O5251     1.0  0.89302  0.72851  0.49100  1.0000
  H   H781      1.0  0.89103  0.73667  0.50955  1.0000
  H   H782      1.0  0.88376  0.73834  0.47726  1.0000
  O   O5252     1.0  0.53235  0.99212  0.89537  1.0000
  H   H783      1.0  0.54065  0.98797  0.91349  1.0000
  H   H784      1.0  0.54584  0.99646  0.88224  1.0000
  O   O5253     1.0  0.54093  0.04231  0.89481  1.0000
  H   H785      1.0  0.55183  0.05301  0.88396  1.0000
  H   H786      1.0  0.54471  0.02641  0.88728  1.0000
  O   O5254     1.0  0.51165  0.99609  0.78139  1.0000
  H   H787      1.0  0.50753  0.99353  0.80175  1.0000
  H   H788      1.0  0.52285  0.98296  0.77654  1.0000
  O   O5255     1.0  0.84630  0.72322  0.41671  1.0000
  H   H789      1.0  0.84232  0.73271  0.43384  1.0000
  H   H790      1.0  0.85955  0.71251  0.42306  1.0000
  O   O5256     1.0  0.54194  0.95814  0.77434  1.0000
  H   H791      1.0  0.55607  0.96811  0.76889  1.0000
  H   H792      1.0  0.54033  0.94669  0.75849  1.0000
  O   O5257     1.0  0.42789  0.03201  0.91111  1.0000
  H   H793      1.0  0.43136  0.01492  0.91266  1.0000
  H   H794      1.0  0.42220  0.03660  0.93040  1.0000
  O   O5258     1.0  0.02044  0.63169  0.09782  1.0000
  H   H795      1.0  0.03088  0.61743  0.09690  1.0000
  H   H796      1.0  0.03164  0.64436  0.10424  1.0000
  O   O5259     1.0  0.46539  0.00585  0.87376  1.0000
  H   H797      1.0  0.45320  0.01550  0.88418  1.0000
  H   H798      1.0  0.46808  0.01443  0.85562  1.0000
  O   O5260     1.0  0.47803  0.02345  0.82212  1.0000
  H   H799      1.0  0.48738  0.00895  0.82657  1.0000
  H   H800      1.0  0.48228  0.03451  0.83771  1.0000
  O   O5261     1.0  0.17294  0.27114  0.26299  1.0000
  H   H801      1.0  0.17635  0.28627  0.25321  1.0000
  H   H802      1.0  0.18932  0.26422  0.26651  1.0000
  O   O5262     1.0  0.56783  0.97065  0.65575  1.0000
  H   H803      1.0  0.56585  0.95335  0.65743  1.0000
  H   H804      1.0  0.58364  0.97403  0.66527  1.0000
  O   O5263     1.0  0.61186  0.97965  0.68234  1.0000
  H   H805      1.0  0.59901  0.98726  0.67061  1.0000
  H   H806      1.0  0.62645  0.98981  0.67986  1.0000
  O   O5264     1.0  0.23283  0.27456  0.21477  1.0000
  H   H807      1.0  0.23170  0.29188  0.21700  1.0000
  H   H808      1.0  0.22936  0.26825  0.23406  1.0000
  O   O5265     1.0  0.20909  0.28793  0.31379  1.0000
  H   H809      1.0  0.21318  0.29853  0.29768  1.0000
  H   H810      1.0  0.21289  0.29728  0.33109  1.0000
  O   O5266     1.0  0.64914  0.89187  0.67365  1.0000
  H   H811      1.0  0.65764  0.90502  0.68341  1.0000
  H   H812      1.0  0.63229  0.89777  0.67043  1.0000
  O   O5267     1.0  0.59945  0.93462  0.72296  1.0000
  H   H813      1.0  0.59922  0.91748  0.72694  1.0000
  H   H814      1.0  0.61532  0.93734  0.71327  1.0000
  O   O5268     1.0  0.22275  0.25390  0.27129  1.0000
  H   H815      1.0  0.22268  0.23937  0.25957  1.0000
  H   H816      1.0  0.22991  0.24897  0.28978  1.0000
  O   O5269     1.0  0.54748  0.92864  0.71888  1.0000
  H   H817      1.0  0.55419  0.92393  0.70008  1.0000
  H   H818      1.0  0.54582  0.94599  0.71765  1.0000
  O   O5270     1.0  0.75212  0.42766  0.10603  1.0000
  H   H819      1.0  0.74196  0.41365  0.10167  1.0000
  H   H820      1.0  0.74274  0.44109  0.09811  1.0000
  O   O5271     1.0  0.50159  0.00675  0.70900  1.0000
  H   H821      1.0  0.50593  0.99286  0.69723  1.0000
  H   H822      1.0  0.50912  0.02026  0.69890  1.0000
  O   O5272     1.0  0.54648  0.01787  0.66470  1.0000
  H   H823      1.0  0.53479  0.02964  0.67233  1.0000
  H   H824      1.0  0.55693  0.01369  0.68123  1.0000
  O   O5273     1.0  0.56391  0.06229  0.71855  1.0000
  H   H825      1.0  0.54796  0.05595  0.71204  1.0000
  H   H826      1.0  0.56806  0.07459  0.70435  1.0000
  O   O5274     1.0  0.63933  0.53142  0.26350  1.0000
  H   H827      1.0  0.64977  0.53716  0.27933  1.0000
  H   H828      1.0  0.64816  0.51753  0.25589  1.0000
  O   O5275     1.0  0.47792  0.02639  0.50005  1.0000
  H   H829      1.0  0.48429  0.04273  0.50067  1.0000
  H   H830      1.0  0.48975  0.01714  0.51152  1.0000
  O   O5276     1.0  0.62010  0.40453  0.22729  1.0000
  H   H831      1.0  0.60523  0.39813  0.21800  1.0000
  H   H832      1.0  0.61603  0.42121  0.23136  1.0000
  O   O5277     1.0  0.64545  0.44609  0.20934  1.0000
  H   H833      1.0  0.64762  0.45998  0.22189  1.0000
  H   H834      1.0  0.63616  0.43468  0.22112  1.0000
  O   O5278     1.0  0.61517  0.06028  0.52451  1.0000
  H   H835      1.0  0.61716  0.05715  0.54518  1.0000
  H   H836      1.0  0.61880  0.04499  0.51522  1.0000
  O   O5279     1.0  0.55663  0.44198  0.15981  1.0000
  H   H837      1.0  0.57318  0.44818  0.15552  1.0000
  H   H838      1.0  0.55508  0.44340  0.18081  1.0000
  O   O5280     1.0  0.50198  0.00429  0.63451  1.0000
  H   H839      1.0  0.51372  0.01144  0.62091  1.0000
  H   H840      1.0  0.49195  0.99352  0.62268  1.0000
  O   O5281     1.0  0.64385  0.36957  0.07705  1.0000
  H   H841      1.0  0.63406  0.37217  0.09457  1.0000
  H   H842      1.0  0.66033  0.36518  0.08412  1.0000
  O   O5282     1.0  0.47802  0.97664  0.59660  1.0000
  H   H843      1.0  0.47301  0.96900  0.57851  1.0000
  H   H844      1.0  0.46556  0.97151  0.61066  1.0000
  O   O5283     1.0  0.64032  0.39398  0.16987  1.0000
  H   H845      1.0  0.63151  0.39690  0.18801  1.0000
  H   H846      1.0  0.62747  0.38852  0.15650  1.0000
  O   O5284     1.0  0.45438  0.97300  0.64917  1.0000
  H   H847      1.0  0.46430  0.96024  0.64053  1.0000
  H   H848      1.0  0.44044  0.97509  0.63588  1.0000
  O   O5285     1.0  0.68301  0.31367  0.06060  1.0000
  H   H849      1.0  0.68794  0.33043  0.06189  1.0000
  H   H850      1.0  0.68044  0.31089  0.03994  1.0000
  O   O5286     1.0  0.55764  0.02656  0.49460  1.0000
  H   H851      1.0  0.57027  0.01868  0.48280  1.0000
  H   H852      1.0  0.55555  0.01608  0.51133  1.0000
  O   O5287     1.0  0.51624  0.01078  0.53344  1.0000
  H   H853      1.0  0.51683  0.01538  0.55383  1.0000
  H   H854      1.0  0.53212  0.00285  0.52994  1.0000
  O   O5288     1.0  0.73549  0.32226  0.04199  1.0000
  H   H855      1.0  0.72421  0.31052  0.03351  1.0000
  H   H856      1.0  0.72619  0.33724  0.04158  1.0000
  O   O5289     1.0  0.79963  0.15361  0.60756  1.0000
  H   H857      1.0  0.79656  0.15816  0.62766  1.0000
  H   H858      1.0  0.78310  0.15138  0.59930  1.0000
  O   O5290     1.0  0.62560  0.14240  0.58435  1.0000
  H   H859      1.0  0.64235  0.14740  0.58975  1.0000
  H   H860      1.0  0.62594  0.14160  0.56323  1.0000
  O   O5291     1.0  0.63270  0.18582  0.55667  1.0000
  H   H861      1.0  0.63072  0.17097  0.56754  1.0000
  H   H862      1.0  0.64108  0.19663  0.57010  1.0000
  O   O5292     1.0  0.63965  0.14398  0.52707  1.0000
  H   H863      1.0  0.63658  0.15924  0.53669  1.0000
  H   H864      1.0  0.65006  0.13509  0.54063  1.0000
  O   O5293     1.0  0.60832  0.26104  0.08836  1.0000
  H   H865      1.0  0.59458  0.25044  0.08331  1.0000
  H   H866      1.0  0.60031  0.27582  0.09465  1.0000
  O   O5294     1.0  0.53306  0.20539  0.01310  1.0000
  H   H867      1.0  0.53306  0.21887  0.02653  1.0000
  H   H868      1.0  0.51551  0.20242  0.00913  1.0000
  O   O5295     1.0  0.52882  0.24214  0.04948  1.0000
  H   H869      1.0  0.52869  0.25397  0.06503  1.0000
  H   H870      1.0  0.53163  0.22692  0.05930  1.0000
  O   O5296     1.0  0.70137  0.19481  0.60457  1.0000
  H   H871      1.0  0.68395  0.19431  0.61044  1.0000
  H   H872      1.0  0.71018  0.18636  0.61995  1.0000
  O   O5297     1.0  0.73861  0.72503  0.07865  1.0000
  H   H873      1.0  0.74057  0.70959  0.08825  1.0000
  H   H874      1.0  0.73090  0.73525  0.09325  1.0000
  O   O5298     1.0  0.75998  0.10983  0.65102  1.0000
  H   H875      1.0  0.75104  0.10274  0.66729  1.0000
  H   H876      1.0  0.74712  0.11771  0.63957  1.0000
  O   O5299     1.0  0.72194  0.09410  0.69243  1.0000
  H   H877      1.0  0.73258  0.10744  0.69810  1.0000
  H   H878      1.0  0.71108  0.10071  0.67751  1.0000
  O   O5300     1.0  0.61828  0.13620  0.75837  1.0000
  H   H879      1.0  0.63357  0.12737  0.76224  1.0000
  H   H880      1.0  0.61149  0.12877  0.74095  1.0000
  O   O5301     1.0  0.73063  0.11249  0.80952  1.0000
  H   H881      1.0  0.71567  0.12232  0.81067  1.0000
  H   H882      1.0  0.74031  0.11961  0.79385  1.0000
  O   O5302     1.0  0.63297  0.82669  0.42951  1.0000
  H   H883      1.0  0.64833  0.81818  0.43403  1.0000
  H   H884      1.0  0.63383  0.84129  0.44106  1.0000
  O   O5303     1.0  0.70857  0.76266  0.40465  1.0000
  H   H885      1.0  0.69576  0.75067  0.40827  1.0000
  H   H886      1.0  0.70084  0.77780  0.41009  1.0000
  O   O5304     1.0  0.66337  0.78743  0.42166  1.0000
  H   H887      1.0  0.67274  0.77303  0.41682  1.0000
  H   H888      1.0  0.67542  0.80039  0.41991  1.0000
  O   O5305     1.0  0.68458  0.09398  0.89086  1.0000
  H   H889      1.0  0.69159  0.10991  0.89365  1.0000
  H   H890      1.0  0.67899  0.08917  0.91011  1.0000
  O   O5306     1.0  0.69328  0.18967  0.82476  1.0000
  H   H891      1.0  0.69773  0.18727  0.84505  1.0000
  H   H892      1.0  0.69223  0.17355  0.81676  1.0000
  O   O5307     1.0  0.64932  0.65111  0.68346  1.0000
  H   H893      1.0  0.65312  0.66321  0.66887  1.0000
  H   H894      1.0  0.66533  0.64373  0.68783  1.0000
  O   O5308     1.0  0.69096  0.14497  0.80547  1.0000
  H   H895      1.0  0.68070  0.13279  0.79619  1.0000
  H   H896      1.0  0.69096  0.14061  0.82594  1.0000
  O   O5309     1.0  0.66307  0.11323  0.77373  1.0000
  H   H897      1.0  0.66297  0.10563  0.79277  1.0000
  H   H898      1.0  0.65536  0.10149  0.76091  1.0000
  O   O5310     1.0  0.66667  0.09914  0.83039  1.0000
  H   H899      1.0  0.67238  0.09714  0.85031  1.0000
  H   H900      1.0  0.67486  0.11370  0.82371  1.0000
  O   O5311     1.0  0.67395  0.69223  0.48551  1.0000
  H   H901      1.0  0.66383  0.70411  0.47546  1.0000
  H   H902      1.0  0.68829  0.68983  0.47289  1.0000
  O   O5312     1.0  0.77667  0.68894  0.51517  1.0000
  H   H903      1.0  0.77451  0.70117  0.53005  1.0000
  H   H904      1.0  0.76472  0.69321  0.50012  1.0000
  O   O5313     1.0  0.06109  0.62818  0.15363  1.0000
  H   H905      1.0  0.07591  0.62546  0.14188  1.0000
  H   H906      1.0  0.06527  0.62156  0.17258  1.0000
  O   O5314     1.0  0.15317  0.81288  0.16696  1.0000
  H   H907      1.0  0.14614  0.80827  0.14828  1.0000
  H   H908      1.0  0.15053  0.79896  0.17935  1.0000
  O   O5315     1.0  0.90222  0.76337  0.43485  1.0000
  H   H909      1.0  0.89979  0.77372  0.41806  1.0000
  H   H910      1.0  0.91152  0.77318  0.44857  1.0000
  O   O5316     1.0  0.02414  0.58955  0.30230  1.0000
  H   H911      1.0  0.03917  0.58835  0.29055  1.0000
  H   H912      1.0  0.01736  0.60529  0.29770  1.0000
  O   O5317     1.0  0.76407  0.26538  0.76181  1.0000
  H   H913      1.0  0.77104  0.27806  0.74976  1.0000
  H   H914      1.0  0.74798  0.26186  0.75302  1.0000
  O   O5318     1.0  0.06072  0.68562  0.26067  1.0000
  H   H915      1.0  0.05956  0.66820  0.26092  1.0000
  H   H916      1.0  0.07715  0.68907  0.26859  1.0000
  O   O5319     1.0  0.12294  0.27595  0.70872  1.0000
  H   H917      1.0  0.13786  0.28480  0.70329  1.0000
  H   H918      1.0  0.12518  0.26019  0.70002  1.0000
  O   O5320     1.0  0.06794  0.57235  0.17448  1.0000
  H   H919      1.0  0.06478  0.58765  0.18397  1.0000
  H   H920      1.0  0.05646  0.57208  0.15811  1.0000
  O   O5321     1.0  0.07656  0.51074  0.12365  1.0000
  H   H921      1.0  0.06525  0.52439  0.12390  1.0000
  H   H922      1.0  0.09066  0.51581  0.13545  1.0000
  O   O5322     1.0  0.21910  0.29777  0.45850  1.0000
  H   H923      1.0  0.22148  0.28707  0.47497  1.0000
  H   H924      1.0  0.21973  0.28731  0.44159  1.0000
  O   O5323     1.0  0.19385  0.60675  0.19999  1.0000
  H   H925      1.0  0.19340  0.60613  0.22112  1.0000
  H   H926      1.0  0.19383  0.62379  0.19542  1.0000
  O   O5324     1.0  0.12678  0.60868  0.19683  1.0000
  H   H927      1.0  0.10950  0.60899  0.20325  1.0000
  H   H928      1.0  0.13326  0.62442  0.20197  1.0000
  O   O5325     1.0  0.12253  0.67416  0.24785  1.0000
  H   H929      1.0  0.12976  0.66255  0.23450  1.0000
  H   H930      1.0  0.13338  0.68810  0.24644  1.0000
  O   O5326     1.0  0.15872  0.70734  0.23523  1.0000
  H   H931      1.0  0.14709  0.71693  0.22390  1.0000
  H   H932      1.0  0.17313  0.70539  0.22261  1.0000
  O   O5327     1.0  0.16064  0.83556  0.30474  1.0000
  H   H933      1.0  0.17157  0.82196  0.30842  1.0000
  H   H934      1.0  0.14953  0.83008  0.28940  1.0000
  O   O5328     1.0  0.35417  0.63590  0.44590  1.0000
  H   H935      1.0  0.35607  0.65221  0.43870  1.0000
  H   H936      1.0  0.36515  0.62636  0.43367  1.0000
  O   O5329     1.0  0.40245  0.61818  0.46234  1.0000
  H   H937      1.0  0.39633  0.62190  0.44295  1.0000
  H   H938      1.0  0.39089  0.62626  0.47536  1.0000
  O   O5330     1.0  0.43541  0.61202  0.50588  1.0000
  H   H939      1.0  0.42819  0.62269  0.52034  1.0000
  H   H940      1.0  0.42432  0.61331  0.48922  1.0000
  O   O5331     1.0  0.22935  0.72439  0.14749  1.0000
  H   H941      1.0  0.21315  0.71691  0.15041  1.0000
  H   H942      1.0  0.24053  0.71560  0.16030  1.0000
  O   O5332     1.0  0.24865  0.76689  0.16346  1.0000
  H   H943      1.0  0.24453  0.77362  0.18237  1.0000
  H   H944      1.0  0.23961  0.75177  0.16275  1.0000
  O   O5333     1.0  0.58234  0.24686  0.58376  1.0000
  H   H945      1.0  0.57476  0.25209  0.56562  1.0000
  H   H946      1.0  0.56973  0.25008  0.59846  1.0000
  O   O5334     1.0  0.26881  0.79707  0.26068  1.0000
  H   H947      1.0  0.25986  0.79489  0.24248  1.0000
  H   H948      1.0  0.25599  0.80154  0.27462  1.0000
  O   O5335     1.0  0.20382  0.80899  0.40897  1.0000
  H   H949      1.0  0.21692  0.79864  0.40143  1.0000
  H   H950      1.0  0.18919  0.79871  0.41002  1.0000
  O   O5336     1.0  0.24103  0.77429  0.38578  1.0000
  H   H951      1.0  0.23816  0.78981  0.37670  1.0000
  H   H952      1.0  0.23240  0.76291  0.37329  1.0000
  O   O5337     1.0  0.03461  0.32825  0.38520  1.0000
  H   H953      1.0  0.02494  0.33382  0.40177  1.0000
  H   H954      1.0  0.04967  0.33797  0.38559  1.0000
  O   O5338     1.0  0.21451  0.75036  0.34458  1.0000
  H   H955      1.0  0.22946  0.75720  0.33592  1.0000
  H   H956      1.0  0.20213  0.75092  0.32914  1.0000
  O   O5339     1.0  0.05813  0.34760  0.46290  1.0000
  H   H957      1.0  0.06609  0.33240  0.45819  1.0000
  H   H958      1.0  0.04295  0.34771  0.45132  1.0000
  O   O5340     1.0  0.17853  0.75332  0.29477  1.0000
  H   H959      1.0  0.18661  0.76767  0.30227  1.0000
  H   H960      1.0  0.19218  0.74233  0.29070  1.0000
  O   O5341     1.0  0.20674  0.71622  0.27952  1.0000
  H   H961      1.0  0.21058  0.69916  0.27910  1.0000
  H   H962      1.0  0.22264  0.72407  0.27590  1.0000
  O   O5342     1.0  0.16103  0.25525  0.46284  1.0000
  H   H963      1.0  0.17231  0.25202  0.47893  1.0000
  H   H964      1.0  0.16334  0.27222  0.45868  1.0000
  O   O5343     1.0  0.70019  0.36363  0.21815  1.0000
  H   H965      1.0  0.68585  0.36970  0.22880  1.0000
  H   H966      1.0  0.70288  0.34761  0.22593  1.0000
  O   O5344     1.0  0.74196  0.32779  0.22041  1.0000
  H   H967      1.0  0.72952  0.34040  0.22223  1.0000
  H   H968      1.0  0.75317  0.33037  0.23674  1.0000
  O   O5345     1.0  0.08008  0.29990  0.44581  1.0000
  H   H969      1.0  0.09437  0.29574  0.43379  1.0000
  H   H970      1.0  0.08580  0.29740  0.46565  1.0000
  O   O5346     1.0  0.69252  0.31987  0.25476  1.0000
  H   H971      1.0  0.69108  0.31360  0.23510  1.0000
  H   H972      1.0  0.70626  0.33123  0.25377  1.0000
  O   O5347     1.0  0.16152  0.30330  0.44316  1.0000
  H   H973      1.0  0.17278  0.29765  0.42806  1.0000
  H   H974      1.0  0.15005  0.31398  0.43311  1.0000
  O   O5348     1.0  0.67791  0.29538  0.20747  1.0000
  H   H975      1.0  0.68192  0.30899  0.19509  1.0000
  H   H976      1.0  0.69323  0.29218  0.21810  1.0000
  O   O5349     1.0  0.69029  0.23377  0.24283  1.0000
  H   H977      1.0  0.69731  0.23014  0.26182  1.0000
  H   H978      1.0  0.69734  0.24929  0.23774  1.0000
  O   O5350     1.0  0.74006  0.27228  0.19609  1.0000
  H   H979      1.0  0.72994  0.27387  0.21353  1.0000
  H   H980      1.0  0.73020  0.27984  0.18088  1.0000
  O   O5351     1.0  0.77006  0.50490  0.31002  1.0000
  H   H981      1.0  0.77099  0.52162  0.31599  1.0000
  H   H982      1.0  0.75236  0.50196  0.30705  1.0000
  O   O5352     1.0  0.85128  0.89402  0.08289  1.0000
  H   H983      1.0  0.85337  0.89157  0.10368  1.0000
  H   H984      1.0  0.86161  0.90790  0.07849  1.0000
  O   O5353     1.0  0.63678  0.64951  0.20820  1.0000
  H   H985      1.0  0.65398  0.64441  0.21079  1.0000
  H   H986      1.0  0.62692  0.63665  0.21672  1.0000
  O   O5354     1.0  0.78394  0.78013  0.95653  1.0000
  H   H987      1.0  0.78475  0.76343  0.95046  1.0000
  H   H988      1.0  0.77274  0.78008  0.97316  1.0000
  O   O5355     1.0  0.91357  0.43237  0.65962  1.0000
  H   H989      1.0  0.89781  0.42797  0.66863  1.0000
  H   H990      1.0  0.92089  0.41717  0.65367  1.0000
  O   O5356     1.0  0.94762  0.40261  0.63611  1.0000
  H   H991      1.0  0.95297  0.41905  0.63272  1.0000
  H   H992      1.0  0.95996  0.39284  0.62611  1.0000
  O   O5357     1.0  0.11121  0.03248  0.83174  1.0000
  H   H993      1.0  0.11241  0.01677  0.82262  1.0000
  H   H994      1.0  0.10109  0.04190  0.81841  1.0000
  O   O5358     1.0  0.08270  0.06180  0.79616  1.0000
  H   H995      1.0  0.07567  0.07775  0.79872  1.0000
  H   H996      1.0  0.09921  0.06280  0.80484  1.0000
  O   O5359     1.0  0.90486  0.46216  0.71115  1.0000
  H   H997      1.0  0.92284  0.46107  0.71361  1.0000
  H   H998      1.0  0.90037  0.44762  0.70069  1.0000
  O   O5360     1.0  0.73502  0.64094  0.44667  1.0000
  H   H999      1.0  0.74616  0.62761  0.44245  1.0000
  H   H1000     1.0  0.72097  0.63363  0.45669  1.0000
  O   O5361     1.0  0.66211  0.64039  0.49705  1.0000
  H   H1001     1.0  0.65481  0.64836  0.48027  1.0000
  H   H1002     1.0  0.67586  0.63107  0.48912  1.0000
  O   O5362     1.0  0.80201  0.42346  0.28874  1.0000
  H   H1003     1.0  0.80600  0.43617  0.30247  1.0000
  H   H1004     1.0  0.81561  0.42380  0.27475  1.0000
  O   O5363     1.0  0.68997  0.34796  0.78130  1.0000
  H   H1005     1.0  0.67306  0.35343  0.77745  1.0000
  H   H1006     1.0  0.69987  0.35481  0.76564  1.0000
  O   O5364     1.0  0.74471  0.49816  0.19669  1.0000
  H   H1007     1.0  0.74171  0.51515  0.19332  1.0000
  H   H1008     1.0  0.74703  0.49143  0.17737  1.0000
  O   O5365     1.0  0.90626  0.87617  0.71537  1.0000
  H   H1009     1.0  0.89914  0.88711  0.70114  1.0000
  H   H1010     1.0  0.89436  0.86303  0.71652  1.0000
  O   O5366     1.0  0.75183  0.47587  0.14345  1.0000
  H   H1011     1.0  0.73631  0.47890  0.15376  1.0000
  H   H1012     1.0  0.76481  0.48036  0.15719  1.0000
  O   O5367     1.0  0.73549  0.24650  0.37613  1.0000
  H   H1013     1.0  0.73306  0.23552  0.35993  1.0000
  H   H1014     1.0  0.74988  0.24013  0.38644  1.0000
  O   O5368     1.0  0.84469  0.29656  0.49554  1.0000
  H   H1015     1.0  0.83683  0.28889  0.47890  1.0000
  H   H1016     1.0  0.84265  0.28512  0.51134  1.0000
  O   O5369     1.0  0.88831  0.33925  0.44329  1.0000
  H   H1017     1.0  0.88714  0.35307  0.43045  1.0000
  H   H1018     1.0  0.87866  0.32683  0.43359  1.0000
  O   O5370     1.0  0.26433  0.31961  0.69023  1.0000
  H   H1019     1.0  0.24770  0.31463  0.68433  1.0000
  H   H1020     1.0  0.27068  0.30618  0.70154  1.0000
  O   O5371     1.0  0.84369  0.36706  0.63672  1.0000
  H   H1021     1.0  0.83721  0.35673  0.62144  1.0000
  H   H1022     1.0  0.85908  0.37354  0.62876  1.0000
  O   O5372     1.0  0.81356  0.72128  0.72839  1.0000
  H   H1023     1.0  0.82948  0.71372  0.72404  1.0000
  H   H1024     1.0  0.80395  0.70884  0.73811  1.0000
  O   O5373     1.0  0.61599  0.80073  0.30930  1.0000
  H   H1025     1.0  0.60007  0.79388  0.30349  1.0000
  H   H1026     1.0  0.61542  0.80088  0.33043  1.0000
  O   O5374     1.0  0.04910  0.99102  0.83340  1.0000
  H   H1027     1.0  0.04359  0.00262  0.81897  1.0000
  H   H1028     1.0  0.05806  0.00053  0.84773  1.0000
  O   O5375     1.0  0.88766  0.44047  0.54788  1.0000
  H   H1029     1.0  0.89163  0.45303  0.56181  1.0000
  H   H1030     1.0  0.88314  0.42672  0.55979  1.0000
  O   O5376     1.0  0.03474  0.03094  0.79270  1.0000
  H   H1031     1.0  0.01933  0.02776  0.80316  1.0000
  H   H1032     1.0  0.04578  0.03791  0.80720  1.0000
  O   O5377     1.0  0.06049  0.99640  0.76135  1.0000
  H   H1033     1.0  0.05253  0.00642  0.77597  1.0000
  H   H1034     1.0  0.05683  0.00432  0.74300  1.0000
  O   O5378     1.0  0.86730  0.46314  0.48117  1.0000
  H   H1035     1.0  0.86440  0.47779  0.49216  1.0000
  H   H1036     1.0  0.85708  0.46492  0.46384  1.0000
  O   O5379     1.0  0.74110  0.57531  0.54152  1.0000
  H   H1037     1.0  0.73212  0.58970  0.53571  1.0000
  H   H1038     1.0  0.75412  0.57352  0.52696  1.0000
  O   O5380     1.0  0.84155  0.51314  0.44517  1.0000
  H   H1039     1.0  0.83215  0.52634  0.45361  1.0000
  H   H1040     1.0  0.85809  0.51455  0.45367  1.0000
  O   O5381     1.0  0.83871  0.46591  0.43023  1.0000
  H   H1041     1.0  0.83586  0.48161  0.43885  1.0000
  H   H1042     1.0  0.85295  0.46823  0.41743  1.0000
  O   O5382     1.0  0.43605  0.15989  0.07759  1.0000
  H   H1043     1.0  0.42693  0.14482  0.07853  1.0000
  H   H1044     1.0  0.45292  0.15576  0.08354  1.0000
  O   O5383     1.0  0.86615  0.42268  0.42929  1.0000
  H   H1045     1.0  0.87278  0.41107  0.41552  1.0000
  H   H1046     1.0  0.85790  0.43463  0.41725  1.0000
  O   O5384     1.0  0.24896  0.13676  0.39775  1.0000
  H   H1047     1.0  0.23896  0.14233  0.41405  1.0000
  H   H1048     1.0  0.24860  0.11936  0.39930  1.0000
  O   O5385     1.0  0.95563  0.49907  0.64759  1.0000
  H   H1049     1.0  0.95703  0.49926  0.62651  1.0000
  H   H1050     1.0  0.95475  0.48214  0.65261  1.0000
  O   O5386     1.0  0.94052  0.54214  0.62526  1.0000
  H   H1051     1.0  0.94492  0.53742  0.60556  1.0000
  H   H1052     1.0  0.94480  0.52829  0.63712  1.0000
  O   O5387     1.0  0.22001  0.06403  0.37900  1.0000
  H   H1053     1.0  0.20950  0.06942  0.36305  1.0000
  H   H1054     1.0  0.22253  0.07829  0.39083  1.0000
  O   O5388     1.0  0.89080  0.53825  0.62519  1.0000
  H   H1055     1.0  0.90820  0.54041  0.61981  1.0000
  H   H1056     1.0  0.89120  0.53517  0.64600  1.0000
  O   O5389     1.0  0.91677  0.53807  0.55840  1.0000
  H   H1057     1.0  0.93075  0.53272  0.57022  1.0000
  H   H1058     1.0  0.91774  0.52832  0.54089  1.0000
  O   O5390     1.0  0.92805  0.50707  0.51576  1.0000
  H   H1059     1.0  0.93109  0.49013  0.51212  1.0000
  H   H1060     1.0  0.92149  0.51317  0.49748  1.0000
  O   O5391     1.0  0.90282  0.48756  0.56049  1.0000
  H   H1061     1.0  0.91128  0.49462  0.54386  1.0000
  H   H1062     1.0  0.88558  0.48586  0.55425  1.0000
  O   O5392     1.0  0.91696  0.57337  0.51615  1.0000
  H   H1063     1.0  0.91775  0.56454  0.49794  1.0000
  H   H1064     1.0  0.91688  0.56102  0.53109  1.0000
  O   O5393     1.0  0.51758  0.47667  0.00940  1.0000
  H   H1065     1.0  0.53505  0.47412  0.00461  1.0000
  H   H1066     1.0  0.50941  0.46174  0.00400  1.0000
  O   O5394     1.0  0.57357  0.47189  0.05078  1.0000
  H   H1067     1.0  0.56808  0.45821  0.06224  1.0000
  H   H1068     1.0  0.56939  0.46765  0.03085  1.0000
  O   O5395     1.0  0.75471  0.59415  0.38232  1.0000
  H   H1069     1.0  0.74303  0.60447  0.37204  1.0000
  H   H1070     1.0  0.75232  0.59809  0.40273  1.0000
  O   O5396     1.0  0.46241  0.39939  0.01227  1.0000
  H   H1071     1.0  0.47519  0.39809  0.02720  1.0000
  H   H1072     1.0  0.44675  0.39791  0.02279  1.0000
  O   O5397     1.0  0.79841  0.44375  0.40153  1.0000
  H   H1073     1.0  0.81318  0.44796  0.41270  1.0000
  H   H1074     1.0  0.79231  0.45898  0.39403  1.0000
  O   O5398     1.0  0.76145  0.55475  0.32658  1.0000
  H   H1075     1.0  0.74598  0.55676  0.31581  1.0000
  H   H1076     1.0  0.75698  0.54455  0.34293  1.0000
  O   O5399     1.0  0.43890  0.43056  0.15517  1.0000
  H   H1077     1.0  0.45373  0.44049  0.15321  1.0000
  H   H1078     1.0  0.43643  0.42370  0.13594  1.0000
  O   O5400     1.0  0.66625  0.72808  0.32431  1.0000
  H   H1079     1.0  0.65571  0.74140  0.31834  1.0000
  H   H1080     1.0  0.66524  0.71672  0.30830  1.0000
  O   O5401     1.0  0.72629  0.78519  0.54842  1.0000
  H   H1081     1.0  0.71003  0.79229  0.54472  1.0000
  H   H1082     1.0  0.73093  0.77775  0.53007  1.0000
  O   O5402     1.0  0.56787  0.77100  0.26359  1.0000
  H   H1083     1.0  0.58478  0.76901  0.25632  1.0000
  H   H1084     1.0  0.56996  0.77473  0.28410  1.0000
  O   O5403     1.0  0.53592  0.79047  0.19983  1.0000
  H   H1085     1.0  0.51947  0.79649  0.20495  1.0000
  H   H1086     1.0  0.53298  0.77409  0.19337  1.0000
  O   O5404     1.0  0.30318  0.34679  0.04375  1.0000
  H   H1087     1.0  0.30471  0.36164  0.03278  1.0000
  H   H1088     1.0  0.30789  0.35113  0.06348  1.0000
  O   O5405     1.0  0.52184  0.76149  0.24292  1.0000
  H   H1089     1.0  0.52324  0.77130  0.22551  1.0000
  H   H1090     1.0  0.53780  0.76341  0.25269  1.0000
  O   O5406     1.0  0.60772  0.69585  0.21789  1.0000
  H   H1091     1.0  0.59592  0.70873  0.21412  1.0000
  H   H1092     1.0  0.62342  0.70400  0.22173  1.0000
  O   O5407     1.0  0.65135  0.90542  0.79543  1.0000
  H   H1093     1.0  0.65297  0.91339  0.77671  1.0000
  H   H1094     1.0  0.64408  0.88988  0.79086  1.0000
  O   O5408     1.0  0.64376  0.72825  0.22606  1.0000
  H   H1095     1.0  0.63389  0.74200  0.23217  1.0000
  H   H1096     1.0  0.64794  0.72002  0.24406  1.0000
  O   O5409     1.0  0.80749  0.77936  0.30527  1.0000
  H   H1097     1.0  0.80491  0.79656  0.30722  1.0000
  H   H1098     1.0  0.82543  0.77727  0.30710  1.0000
  O   O5410     1.0  0.66652  0.64552  0.26204  1.0000
  H   H1099     1.0  0.66874  0.65664  0.24595  1.0000
  H   H1100     1.0  0.66277  0.63024  0.25280  1.0000
  O   O5411     1.0  0.46914  0.73772  0.96405  1.0000
  H   H1101     1.0  0.45617  0.73138  0.97669  1.0000
  H   H1102     1.0  0.46441  0.73241  0.94467  1.0000
  O   O5412     1.0  0.66466  0.55171  0.16983  1.0000
  H   H1103     1.0  0.66993  0.55812  0.18852  1.0000
  H   H1104     1.0  0.67816  0.54109  0.16400  1.0000
  O   O5413     1.0  0.17231  0.62870  0.34840  1.0000
  H   H1105     1.0  0.15879  0.63422  0.33600  1.0000
  H   H1106     1.0  0.17146  0.61129  0.34733  1.0000
  O   O5414     1.0  0.70371  0.61721  0.28706  1.0000
  H   H1107     1.0  0.71067  0.61804  0.30656  1.0000
  H   H1108     1.0  0.71762  0.61230  0.27487  1.0000
  O   O5415     1.0  0.68900  0.56285  0.21948  1.0000
  H   H1109     1.0  0.70644  0.56229  0.22525  1.0000
  H   H1110     1.0  0.68506  0.57988  0.21870  1.0000
  O   O5416     1.0  0.84882  0.70184  0.86836  1.0000
  H   H1111     1.0  0.86484  0.70527  0.87737  1.0000
  H   H1112     1.0  0.84160  0.68928  0.88038  1.0000
  O   O5417     1.0  0.70384  0.42951  0.97317  1.0000
  H   H1113     1.0  0.70968  0.41549  0.96258  1.0000
  H   H1114     1.0  0.69952  0.42342  0.99234  1.0000
  O   O5418     1.0  0.73547  0.44596  0.01593  1.0000
  H   H1115     1.0  0.72370  0.44279  0.03155  1.0000
  H   H1116     1.0  0.72681  0.44091  0.99838  1.0000
  O   O5419     1.0  0.42406  0.93106  0.58281  1.0000
  H   H1117     1.0  0.42292  0.91837  0.59727  1.0000
  H   H1118     1.0  0.41848  0.94541  0.59294  1.0000
  O   O5420     1.0  0.60996  0.43341  0.03923  1.0000
  H   H1119     1.0  0.62574  0.42776  0.03137  1.0000
  H   H1120     1.0  0.61060  0.42916  0.05972  1.0000
  O   O5421     1.0  0.70149  0.47523  0.14358  1.0000
  H   H1121     1.0  0.70296  0.49231  0.14756  1.0000
  H   H1122     1.0  0.70063  0.46779  0.16268  1.0000
  O   O5422     1.0  0.89217  0.01342  0.42305  1.0000
  H   H1123     1.0  0.88839  0.00171  0.40801  1.0000
  H   H1124     1.0  0.90791  0.00803  0.43129  1.0000
  O   O5423     1.0  0.69203  0.43001  0.12246  1.0000
  H   H1125     1.0  0.69977  0.44455  0.12990  1.0000
  H   H1126     1.0  0.67433  0.43378  0.12162  1.0000
  O   O5424     1.0  0.94544  0.02897  0.54119  1.0000
  H   H1127     1.0  0.96352  0.02774  0.54028  1.0000
  H   H1128     1.0  0.94085  0.03753  0.52356  1.0000
  O   O5425     1.0  0.69172  0.41987  0.23891  1.0000
  H   H1129     1.0  0.69235  0.43663  0.23306  1.0000
  H   H1130     1.0  0.69593  0.41099  0.22138  1.0000
  O   O5426     1.0  0.66022  0.36650  0.00843  1.0000
  H   H1131     1.0  0.67776  0.37095  0.00868  1.0000
  H   H1132     1.0  0.65153  0.38077  0.01519  1.0000
  O   O5427     1.0  0.63314  0.32375  0.01796  1.0000
  H   H1133     1.0  0.63350  0.31930  0.99752  1.0000
  H   H1134     1.0  0.64211  0.33891  0.01882  1.0000
  O   O5428     1.0  0.63522  0.33770  0.88973  1.0000
  H   H1135     1.0  0.64511  0.35035  0.88083  1.0000
  H   H1136     1.0  0.63717  0.34022  0.91053  1.0000
  O   O5429     1.0  0.45797  0.22548  0.57155  1.0000
  H   H1137     1.0  0.47153  0.23468  0.56301  1.0000
  H   H1138     1.0  0.44315  0.23507  0.56786  1.0000
  O   O5430     1.0  0.65723  0.40771  0.95650  1.0000
  H   H1139     1.0  0.66449  0.40461  0.93749  1.0000
  H   H1140     1.0  0.67041  0.41571  0.96733  1.0000
  O   O5431     1.0  0.48547  0.23626  0.49518  1.0000
  H   H1141     1.0  0.47100  0.23022  0.48473  1.0000
  H   H1142     1.0  0.47854  0.24659  0.51019  1.0000
  O   O5432     1.0  0.61009  0.40062  0.91241  1.0000
  H   H1143     1.0  0.59707  0.39706  0.89833  1.0000
  H   H1144     1.0  0.60865  0.41779  0.91582  1.0000
  O   O5433     1.0  0.64339  0.44004  0.91261  1.0000
  H   H1145     1.0  0.62958  0.42966  0.90716  1.0000
  H   H1146     1.0  0.65143  0.43174  0.92868  1.0000
  O   O5434     1.0  0.44230  0.27183  0.60563  1.0000
  H   H1147     1.0  0.43256  0.27261  0.58782  1.0000
  H   H1148     1.0  0.43118  0.27798  0.62058  1.0000
  O   O5435     1.0  0.30978  0.76210  0.25656  1.0000
  H   H1149     1.0  0.30184  0.74671  0.26029  1.0000
  H   H1150     1.0  0.29630  0.77372  0.25790  1.0000
  O   O5436     1.0  0.50165  0.23610  0.43318  1.0000
  H   H1151     1.0  0.50280  0.24759  0.41732  1.0000
  H   H1152     1.0  0.49111  0.22333  0.42564  1.0000
  O   O5437     1.0  0.32912  0.72400  0.22681  1.0000
  H   H1153     1.0  0.33859  0.71547  0.24159  1.0000
  H   H1154     1.0  0.32205  0.73770  0.23699  1.0000
  O   O5438     1.0  0.38359  0.71686  0.22285  1.0000
  H   H1155     1.0  0.37330  0.71187  0.23918  1.0000
  H   H1156     1.0  0.38696  0.70210  0.21226  1.0000
  O   O5439     1.0  0.45318  0.67677  0.16135  1.0000
  H   H1157     1.0  0.43597  0.67487  0.15507  1.0000
  H   H1158     1.0  0.45315  0.69145  0.17279  1.0000
  O   O5440     1.0  0.54194  0.21696  0.40367  1.0000
  H   H1159     1.0  0.55320  0.22516  0.41695  1.0000
  H   H1160     1.0  0.52535  0.22139  0.41033  1.0000
  O   O5441     1.0  0.44089  0.80996  0.22843  1.0000
  H   H1161     1.0  0.45518  0.80236  0.21923  1.0000
  H   H1162     1.0  0.42764  0.80880  0.21406  1.0000
  O   O5442     1.0  0.45758  0.72272  0.19841  1.0000
  H   H1163     1.0  0.44560  0.72917  0.18458  1.0000
  H   H1164     1.0  0.44978  0.72505  0.21729  1.0000
  O   O5443     1.0  0.17574  0.05642  0.60322  1.0000
  H   H1165     1.0  0.18626  0.06953  0.60989  1.0000
  H   H1166     1.0  0.15880  0.06221  0.60601  1.0000
  O   O5444     1.0  0.41967  0.73146  0.09332  1.0000
  H   H1167     1.0  0.40848  0.73884  0.10735  1.0000
  H   H1168     1.0  0.43542  0.72988  0.10362  1.0000
  O   O5445     1.0  0.01230  0.07559  0.88214  1.0000
  H   H1169     1.0  0.02401  0.07447  0.86605  1.0000
  H   H1170     1.0  0.01370  0.06023  0.89206  1.0000
  O   O5446     1.0  0.37684  0.78064  0.23814  1.0000
  H   H1171     1.0  0.39164  0.77611  0.24907  1.0000
  H   H1172     1.0  0.38301  0.79126  0.22298  1.0000
  O   O5447     1.0  0.98732  0.98105  0.85075  1.0000
  H   H1173     1.0  0.97007  0.98079  0.84422  1.0000
  H   H1174     1.0  0.99239  0.99773  0.84873  1.0000
  O   O5448     1.0  0.39790  0.82890  0.25784  1.0000
  H   H1175     1.0  0.41237  0.81989  0.25124  1.0000
  H   H1176     1.0  0.39237  0.82048  0.27521  1.0000
  O   O5449     1.0  0.95685  0.99377  0.77376  1.0000
  H   H1177     1.0  0.97334  0.98652  0.77440  1.0000
  H   H1178     1.0  0.94976  0.99052  0.79282  1.0000
  O   O5450     1.0  0.37055  0.71947  0.36205  1.0000
  H   H1179     1.0  0.37488  0.70338  0.35558  1.0000
  H   H1180     1.0  0.35351  0.71804  0.36908  1.0000
  O   O5451     1.0  0.18156  0.90221  0.46138  1.0000
  H   H1181     1.0  0.19832  0.89553  0.46106  1.0000
  H   H1182     1.0  0.17260  0.89333  0.44647  1.0000
  O   O5452     1.0  0.37992  0.55263  0.31720  1.0000
  H   H1183     1.0  0.38885  0.54135  0.30486  1.0000
  H   H1184     1.0  0.36890  0.56118  0.30398  1.0000
  O   O5453     1.0  0.40310  0.72162  0.31227  1.0000
  H   H1185     1.0  0.40339  0.70526  0.30490  1.0000
  H   H1186     1.0  0.39212  0.72095  0.32908  1.0000
  O   O5454     1.0  0.21720  0.86492  0.38319  1.0000
  H   H1187     1.0  0.21037  0.87716  0.37039  1.0000
  H   H1188     1.0  0.22985  0.87327  0.39448  1.0000
  O   O5455     1.0  0.41203  0.75997  0.34668  1.0000
  H   H1189     1.0  0.40882  0.74628  0.33410  1.0000
  H   H1190     1.0  0.41279  0.77362  0.33353  1.0000
  O   O5456     1.0  0.32649  0.67870  0.19173  1.0000
  H   H1191     1.0  0.32937  0.66432  0.20324  1.0000
  H   H1192     1.0  0.32786  0.69182  0.20558  1.0000
  O   O5457     1.0  0.36734  0.59686  0.22521  1.0000
  H   H1193     1.0  0.36457  0.58779  0.24299  1.0000
  H   H1194     1.0  0.36999  0.61326  0.23175  1.0000
  O   O5458     1.0  0.02003  0.80697  0.35635  1.0000
  H   H1195     1.0  0.03673  0.81366  0.35790  1.0000
  H   H1196     1.0  0.01071  0.81884  0.34529  1.0000
  O   O5459     1.0  0.10088  0.79853  0.32548  1.0000
  H   H1197     1.0  0.09504  0.79770  0.30549  1.0000
  H   H1198     1.0  0.08736  0.80629  0.33598  1.0000
  O   O5460     1.0  0.38821  0.62707  0.29531  1.0000
  H   H1199     1.0  0.39691  0.64216  0.29849  1.0000
  H   H1200     1.0  0.37377  0.63139  0.28362  1.0000
  O   O5461     1.0  0.05330  0.81977  0.28242  1.0000
  H   H1201     1.0  0.06517  0.80753  0.27644  1.0000
  H   H1202     1.0  0.03749  0.81131  0.28393  1.0000
  O   O5462     1.0  0.35582  0.77596  0.33626  1.0000
  H   H1203     1.0  0.33998  0.78361  0.33172  1.0000
  H   H1204     1.0  0.36832  0.78651  0.32780  1.0000
  O   O5463     1.0  0.61190  0.96537  0.18532  1.0000
  H   H1205     1.0  0.61256  0.94962  0.19441  1.0000
  H   H1206     1.0  0.60239  0.97518  0.19885  1.0000
  O   O5464     1.0  0.51873  0.79546  0.70481  1.0000
  H   H1207     1.0  0.50219  0.80258  0.70579  1.0000
  H   H1208     1.0  0.51791  0.78451  0.68837  1.0000
  O   O5465     1.0  0.50211  0.99815  0.20200  1.0000
  H   H1209     1.0  0.51836  0.00371  0.19546  1.0000
  H   H1210     1.0  0.50229  0.98096  0.19831  1.0000
  O   O5466     1.0  0.76359  0.73253  0.01111  1.0000
  H   H1211     1.0  0.77738  0.72902  0.99804  1.0000
  H   H1212     1.0  0.75969  0.71720  0.02014  1.0000
  O   O5467     1.0  0.46222  0.79023  0.75462  1.0000
  H   H1213     1.0  0.46432  0.78929  0.73365  1.0000
  H   H1214     1.0  0.46245  0.80733  0.75888  1.0000
  O   O5468     1.0  0.49694  0.75600  0.74674  1.0000
  H   H1215     1.0  0.48757  0.77060  0.74284  1.0000
  H   H1216     1.0  0.48935  0.74944  0.76423  1.0000
  O   O5469     1.0  0.68989  0.68929  0.95767  1.0000
  H   H1217     1.0  0.70449  0.69568  0.94779  1.0000
  H   H1218     1.0  0.69128  0.69525  0.97748  1.0000
  O   O5470     1.0  0.55558  0.66260  0.99657  1.0000
  H   H1219     1.0  0.54864  0.67047  0.01362  1.0000
  H   H1220     1.0  0.54853  0.67131  0.98019  1.0000
  O   O5471     1.0  0.49495  0.77280  0.12599  1.0000
  H   H1221     1.0  0.49669  0.78713  0.11409  1.0000
  H   H1222     1.0  0.50691  0.76152  0.11787  1.0000
  O   O5472     1.0  0.70969  0.76786  0.97232  1.0000
  H   H1223     1.0  0.69255  0.77115  0.97798  1.0000
  H   H1224     1.0  0.71969  0.77449  0.98802  1.0000
  O   O5473     1.0  0.47255  0.72363  0.11927  1.0000
  H   H1225     1.0  0.48678  0.71287  0.12075  1.0000
  H   H1226     1.0  0.47963  0.73960  0.12143  1.0000
  O   O5474     1.0  0.70725  0.71297  0.00824  1.0000
  H   H1227     1.0  0.70557  0.73024  0.01065  1.0000
  H   H1228     1.0  0.70157  0.70629  0.02662  1.0000
  O   O5475     1.0  0.59847  0.71134  0.05750  1.0000
  H   H1229     1.0  0.58237  0.71938  0.05736  1.0000
  H   H1230     1.0  0.59442  0.69434  0.05680  1.0000
  O   O5476     1.0  0.56840  0.67389  0.10695  1.0000
  H   H1231     1.0  0.55465  0.68421  0.10110  1.0000
  H   H1232     1.0  0.57627  0.66918  0.08877  1.0000
  O   O5477     1.0  0.55269  0.59696  0.00684  1.0000
  H   H1233     1.0  0.54417  0.58339  0.01569  1.0000
  H   H1234     1.0  0.56964  0.59605  0.01430  1.0000
  O   O5478     1.0  0.29467  0.66020  0.05024  1.0000
  H   H1235     1.0  0.28182  0.65016  0.05890  1.0000
  H   H1236     1.0  0.30173  0.65038  0.03482  1.0000
  O   O5479     1.0  0.60658  0.63337  0.01293  1.0000
  H   H1237     1.0  0.60353  0.61692  0.01904  1.0000
  H   H1238     1.0  0.59969  0.64314  0.02851  1.0000
  O   O5480     1.0  0.30391  0.63900  0.10839  1.0000
  H   H1239     1.0  0.29735  0.64022  0.08873  1.0000
  H   H1240     1.0  0.31340  0.65371  0.11113  1.0000
  O   O5481     1.0  0.32744  0.59107  0.05288  1.0000
  H   H1241     1.0  0.33671  0.59999  0.06749  1.0000
  H   H1242     1.0  0.32003  0.60335  0.04059  1.0000
  O   O5482     1.0  0.53823  0.76001  0.96327  1.0000
  H   H1243     1.0  0.53854  0.74639  0.95006  1.0000
  H   H1244     1.0  0.53117  0.75365  0.98116  1.0000
  O   O5483     1.0  0.52601  0.69710  0.02415  1.0000
  H   H1245     1.0  0.53482  0.70065  0.00618  1.0000
  H   H1246     1.0  0.53698  0.70299  0.03940  1.0000
  O   O5484     1.0  0.53547  0.80083  0.78606  1.0000
  H   H1247     1.0  0.55304  0.80495  0.78769  1.0000
  H   H1248     1.0  0.53385  0.78582  0.79668  1.0000
  O   O5485     1.0  0.01117  0.84526  0.98008  1.0000
  H   H1249     1.0  0.01599  0.83699  0.99783  1.0000
  H   H1250     1.0  0.01877  0.86105  0.98175  1.0000
  O   O5486     1.0  0.52638  0.75883  0.81456  1.0000
  H   H1251     1.0  0.52567  0.75709  0.79354  1.0000
  H   H1252     1.0  0.53848  0.74689  0.82079  1.0000
  O   O5487     1.0  0.58437  0.26425  0.01699  1.0000
  H   H1253     1.0  0.59548  0.26611  0.00043  1.0000
  H   H1254     1.0  0.56804  0.26882  0.00963  1.0000
  O   O5488     1.0  0.53057  0.83856  0.86331  1.0000
  H   H1255     1.0  0.53302  0.83040  0.88178  1.0000
  H   H1256     1.0  0.54582  0.83547  0.85248  1.0000
  O   O5489     1.0  0.62072  0.82927  0.83550  1.0000
  H   H1257     1.0  0.62593  0.82777  0.81533  1.0000
  H   H1258     1.0  0.60268  0.83092  0.83454  1.0000
  O   O5490     1.0  0.56632  0.84228  0.01885  1.0000
  H   H1259     1.0  0.55366  0.83690  0.03252  1.0000
  H   H1260     1.0  0.56065  0.83634  0.00010  1.0000
  O   O5491     1.0  0.54633  0.43887  0.82903  1.0000
  H   H1261     1.0  0.54929  0.42585  0.84268  1.0000
  H   H1262     1.0  0.55692  0.45186  0.83588  1.0000
  O   O5492     1.0  0.57197  0.80178  0.07580  1.0000
  H   H1263     1.0  0.56537  0.79208  0.05999  1.0000
  H   H1264     1.0  0.56653  0.79358  0.09336  1.0000
  O   O5493     1.0  0.57361  0.92503  0.21297  1.0000
  H   H1265     1.0  0.57529  0.91394  0.22918  1.0000
  H   H1266     1.0  0.56036  0.91823  0.20110  1.0000
  O   O5494     1.0  0.59892  0.81469  0.23509  1.0000
  H   H1267     1.0  0.60414  0.80277  0.24929  1.0000
  H   H1268     1.0  0.60043  0.80658  0.21645  1.0000
  O   O5495     1.0  0.07147  0.75733  0.06286  1.0000
  H   H1269     1.0  0.08832  0.75189  0.05864  1.0000
  H   H1270     1.0  0.06105  0.74332  0.05944  1.0000
  O   O5496     1.0  0.55540  0.83593  0.24849  1.0000
  H   H1271     1.0  0.57126  0.82849  0.24356  1.0000
  H   H1272     1.0  0.55795  0.85293  0.24471  1.0000
  O   O5497     1.0  0.12100  0.56757  0.68328  1.0000
  H   H1273     1.0  0.13625  0.57110  0.67266  1.0000
  H   H1274     1.0  0.11395  0.58323  0.68772  1.0000
  O   O5498     1.0  0.55595  0.77763  0.12796  1.0000
  H   H1275     1.0  0.56910  0.77121  0.14028  1.0000
  H   H1276     1.0  0.54666  0.76359  0.12160  1.0000
  O   O5499     1.0  0.33868  0.93618  0.31696  1.0000
  H   H1277     1.0  0.35113  0.94061  0.33137  1.0000
  H   H1278     1.0  0.33667  0.91894  0.31931  1.0000
  O   O5500     1.0  0.30560  0.89225  0.37393  1.0000
  H   H1279     1.0  0.29813  0.88480  0.35690  1.0000
  H   H1280     1.0  0.29326  0.90387  0.38041  1.0000
  O   O5501     1.0  0.62059  0.50043  0.58075  1.0000
  H   H1281     1.0  0.60834  0.50056  0.59635  1.0000
  H   H1282     1.0  0.62900  0.51584  0.58236  1.0000
  O   O5502     1.0  0.34224  0.89225  0.41284  1.0000
  H   H1283     1.0  0.33028  0.89205  0.39694  1.0000
  H   H1284     1.0  0.35838  0.89056  0.40342  1.0000
  O   O5503     1.0  0.25833  0.97342  0.40500  1.0000
  H   H1285     1.0  0.26563  0.95765  0.40189  1.0000
  H   H1286     1.0  0.24606  0.97095  0.42029  1.0000
  O   O5504     1.0  0.41207  0.69116  0.02190  1.0000
  H   H1287     1.0  0.40303  0.70626  0.02071  1.0000
  H   H1288     1.0  0.40768  0.68271  0.00412  1.0000
  O   O5505     1.0  0.44456  0.72971  0.02004  1.0000
  H   H1289     1.0  0.43012  0.71934  0.01762  1.0000
  H   H1290     1.0  0.45648  0.72000  0.03080  1.0000
  O   O5506     1.0  0.86049  0.35458  0.26274  1.0000
  H   H1291     1.0  0.84852  0.35807  0.24742  1.0000
  H   H1292     1.0  0.85125  0.34487  0.27663  1.0000
  O   O5507     1.0  0.18893  0.50180  0.70111  1.0000
  H   H1293     1.0  0.19945  0.49740  0.68473  1.0000
  H   H1294     1.0  0.18178  0.48670  0.70767  1.0000
  O   O5508     1.0  0.36899  0.64118  0.91710  1.0000
  H   H1295     1.0  0.35945  0.64603  0.90011  1.0000
  H   H1296     1.0  0.37415  0.62481  0.91290  1.0000
  O   O5509     1.0  0.65741  0.66948  0.82214  1.0000
  H   H1297     1.0  0.64966  0.65371  0.82131  1.0000
  H   H1298     1.0  0.67430  0.66639  0.82887  1.0000
  O   O5510     1.0  0.46733  0.57814  0.81749  1.0000
  H   H1299     1.0  0.45181  0.58570  0.81150  1.0000
  H   H1300     1.0  0.46568  0.57620  0.83842  1.0000
  O   O5511     1.0  0.38552  0.59421  0.90907  1.0000
  H   H1301     1.0  0.38940  0.58075  0.92175  1.0000
  H   H1302     1.0  0.38237  0.58693  0.89020  1.0000
  O   O5512     1.0  0.68890  0.67185  0.89145  1.0000
  H   H1303     1.0  0.69636  0.66507  0.87401  1.0000
  H   H1304     1.0  0.67210  0.66528  0.89186  1.0000
  O   O5513     1.0  0.42999  0.62119  0.87117  1.0000
  H   H1305     1.0  0.43744  0.60686  0.86279  1.0000
  H   H1306     1.0  0.43004  0.61824  0.89201  1.0000
  O   O5514     1.0  0.72930  0.64955  0.78711  1.0000
  H   H1307     1.0  0.72233  0.65226  0.80635  1.0000
  H   H1308     1.0  0.72385  0.63346  0.78192  1.0000
  O   O5515     1.0  0.42136  0.59803  0.81906  1.0000
  H   H1309     1.0  0.41760  0.58251  0.82769  1.0000
  H   H1310     1.0  0.42490  0.60840  0.83556  1.0000
  O   O5516     1.0  0.37554  0.62542  0.79793  1.0000
  H   H1311     1.0  0.35747  0.62619  0.79958  1.0000
  H   H1312     1.0  0.38145  0.62556  0.81792  1.0000
  O   O5517     1.0  0.41690  0.66763  0.86680  1.0000
  H   H1313     1.0  0.41611  0.65043  0.87031  1.0000
  H   H1314     1.0  0.40022  0.67340  0.87128  1.0000
  O   O5518     1.0  0.07044  0.19259  0.16004  1.0000
  H   H1315     1.0  0.07394  0.18769  0.17992  1.0000
  H   H1316     1.0  0.08636  0.19113  0.15006  1.0000
  O   O5519     1.0  0.38023  0.69992  0.87297  1.0000
  H   H1317     1.0  0.38412  0.70942  0.85582  1.0000
  H   H1318     1.0  0.36774  0.70929  0.88328  1.0000
  O   O5520     1.0  0.87582  0.17762  0.91503  1.0000
  H   H1319     1.0  0.88242  0.19371  0.91221  1.0000
  H   H1320     1.0  0.86688  0.17413  0.89712  1.0000
  O   O5521     1.0  0.34551  0.68306  0.95084  1.0000
  H   H1321     1.0  0.36318  0.67927  0.95219  1.0000
  H   H1322     1.0  0.34159  0.68131  0.93030  1.0000
  O   O5522     1.0  0.38072  0.72983  0.00277  1.0000
  H   H1323     1.0  0.39297  0.72589  0.98793  1.0000
  H   H1324     1.0  0.38838  0.74272  0.01389  1.0000
  O   O5523     1.0  0.44691  0.38176  0.30486  1.0000
  H   H1325     1.0  0.42999  0.37839  0.31131  1.0000
  H   H1326     1.0  0.45052  0.36924  0.29073  1.0000
  O   O5524     1.0  0.81740  0.20988  0.17632  1.0000
  H   H1327     1.0  0.82106  0.22636  0.17080  1.0000
  H   H1328     1.0  0.82349  0.20029  0.16014  1.0000
  O   O5525     1.0  0.11734  0.63118  0.39301  1.0000
  H   H1329     1.0  0.12859  0.61941  0.40148  1.0000
  H   H1330     1.0  0.10176  0.62254  0.39027  1.0000
  O   O5526     1.0  0.87547  0.15821  0.15805  1.0000
  H   H1331     1.0  0.88586  0.17225  0.16138  1.0000
  H   H1332     1.0  0.86031  0.16456  0.14936  1.0000
  O   O5527     1.0  0.33859  0.91072  0.84120  1.0000
  H   H1333     1.0  0.33166  0.89835  0.85374  1.0000
  H   H1334     1.0  0.35646  0.91010  0.84479  1.0000
  O   O5528     1.0  0.40429  0.81222  0.76494  1.0000
  H   H1335     1.0  0.38974  0.80181  0.76431  1.0000
  H   H1336     1.0  0.39921  0.82562  0.77712  1.0000
  O   O5529     1.0  0.36723  0.88102  0.78057  1.0000
  H   H1337     1.0  0.35223  0.88876  0.78788  1.0000
  H   H1338     1.0  0.38085  0.88973  0.78972  1.0000
  O   O5530     1.0  0.89117  0.27233  0.08936  1.0000
  H   H1339     1.0  0.88857  0.25600  0.09619  1.0000
  H   H1340     1.0  0.89010  0.27117  0.06830  1.0000
  O   O5531     1.0  0.31808  0.89043  0.78851  1.0000
  H   H1341     1.0  0.32645  0.89434  0.80667  1.0000
  H   H1342     1.0  0.30910  0.90499  0.78336  1.0000
  O   O5532     1.0  0.82377  0.26132  0.07599  1.0000
  H   H1343     1.0  0.83506  0.26819  0.06168  1.0000
  H   H1344     1.0  0.81759  0.24672  0.06692  1.0000
  O   O5533     1.0  0.00307  0.69377  0.56054  1.0000
  H   H1345     1.0  0.00379  0.69727  0.58124  1.0000
  H   H1346     1.0  0.00795  0.67700  0.55905  1.0000
  O   O5534     1.0  0.90493  0.25825  0.98358  1.0000
  H   H1347     1.0  0.89560  0.25984  0.96555  1.0000
  H   H1348     1.0  0.89707  0.26959  0.99679  1.0000
  O   O5535     1.0  0.58874  0.50403  0.41545  1.0000
  H   H1349     1.0  0.60168  0.51601  0.41842  1.0000
  H   H1350     1.0  0.59777  0.48903  0.41301  1.0000
  O   O5536     1.0  0.57407  0.79405  0.44002  1.0000
  H   H1351     1.0  0.57479  0.79646  0.46095  1.0000
  H   H1352     1.0  0.57411  0.81018  0.43194  1.0000
  O   O5537     1.0  0.55101  0.35414  0.54067  1.0000
  H   H1353     1.0  0.54047  0.35894  0.55687  1.0000
  H   H1354     1.0  0.55212  0.33677  0.54228  1.0000
  O   O5538     1.0  0.57325  0.83031  0.39412  1.0000
  H   H1355     1.0  0.58095  0.84611  0.39470  1.0000
  H   H1356     1.0  0.56730  0.82866  0.37425  1.0000
  O   O5539     1.0  0.56077  0.83489  0.33765  1.0000
  H   H1357     1.0  0.55255  0.83896  0.35584  1.0000
  H   H1358     1.0  0.54718  0.83205  0.32407  1.0000
  O   O5540     1.0  0.42911  0.39210  0.62516  1.0000
  H   H1359     1.0  0.42198  0.38156  0.61049  1.0000
  H   H1360     1.0  0.42806  0.38296  0.64313  1.0000
  O   O5541     1.0  0.47229  0.37390  0.60834  1.0000
  H   H1361     1.0  0.48180  0.38535  0.59686  1.0000
  H   H1362     1.0  0.45700  0.38236  0.61328  1.0000
  O   O5542     1.0  0.49989  0.40440  0.57638  1.0000
  H   H1363     1.0  0.48818  0.41758  0.57396  1.0000
  H   H1364     1.0  0.49244  0.39113  0.56573  1.0000
  O   O5543     1.0  0.52070  0.36247  0.58835  1.0000
  H   H1365     1.0  0.52913  0.36762  0.60600  1.0000
  H   H1366     1.0  0.51203  0.37673  0.58152  1.0000
  O   O5544     1.0  0.77706  0.60501  0.95378  1.0000
  H   H1367     1.0  0.77583  0.61672  0.96940  1.0000
  H   H1368     1.0  0.79310  0.60826  0.94473  1.0000
  O   O5545     1.0  0.20956  0.50226  0.61223  1.0000
  H   H1369     1.0  0.20255  0.48818  0.62169  1.0000
  H   H1370     1.0  0.22351  0.50689  0.62453  1.0000
  O   O5546     1.0  0.85100  0.56354  0.85762  1.0000
  H   H1371     1.0  0.86226  0.55015  0.85418  1.0000
  H   H1372     1.0  0.85808  0.57184  0.87429  1.0000
  O   O5547     1.0  0.81082  0.59419  0.91272  1.0000
  H   H1373     1.0  0.82866  0.59519  0.90912  1.0000
  H   H1374     1.0  0.80558  0.57969  0.90266  1.0000
  O   O5548     1.0  0.36608  0.36866  0.65611  1.0000
  H   H1375     1.0  0.37573  0.35388  0.65571  1.0000
  H   H1376     1.0  0.37785  0.38083  0.66253  1.0000
  O   O5549     1.0  0.37387  0.31856  0.64706  1.0000
  H   H1377     1.0  0.38718  0.31187  0.63520  1.0000
  H   H1378     1.0  0.38185  0.33127  0.65817  1.0000
  O   O5550     1.0  0.91212  0.57673  0.74582  1.0000
  H   H1379     1.0  0.89754  0.57010  0.75550  1.0000
  H   H1380     1.0  0.91756  0.58972  0.75844  1.0000
  O   O5551     1.0  0.37885  0.41385  0.67040  1.0000
  H   H1381     1.0  0.36489  0.42009  0.68158  1.0000
  H   H1382     1.0  0.38005  0.42449  0.65370  1.0000
  O   O5552     1.0  0.81485  0.61777  0.84306  1.0000
  H   H1383     1.0  0.82748  0.61925  0.85813  1.0000
  H   H1384     1.0  0.81018  0.63422  0.83857  1.0000
  O   O5553     1.0  0.30287  0.45351  0.63914  1.0000
  H   H1385     1.0  0.28509  0.45584  0.64224  1.0000
  H   H1386     1.0  0.30698  0.43938  0.65059  1.0000
  O   O5554     1.0  0.84896  0.61300  0.79912  1.0000
  H   H1387     1.0  0.83775  0.61219  0.81572  1.0000
  H   H1388     1.0  0.85816  0.59797  0.79974  1.0000
  O   O5555     1.0  0.93038  0.58296  0.29974  1.0000
  H   H1389     1.0  0.91661  0.58343  0.28599  1.0000
  H   H1390     1.0  0.94076  0.59659  0.29445  1.0000
  O   O5556     1.0  0.87083  0.63001  0.28030  1.0000
  H   H1391     1.0  0.88214  0.63298  0.29643  1.0000
  H   H1392     1.0  0.88031  0.61993  0.26704  1.0000
  O   O5557     1.0  0.57385  0.10550  0.76873  1.0000
  H   H1393     1.0  0.55766  0.10316  0.75963  1.0000
  H   H1394     1.0  0.57009  0.11290  0.78737  1.0000
  O   O5558     1.0  0.98722  0.74608  0.33673  1.0000
  H   H1395     1.0  0.98775  0.72906  0.34141  1.0000
  H   H1396     1.0  0.96960  0.75018  0.33735  1.0000
  O   O5559     1.0  0.04143  0.75361  0.34547  1.0000
  H   H1397     1.0  0.03801  0.74245  0.32971  1.0000
  H   H1398     1.0  0.05813  0.74944  0.35199  1.0000
  O   O5560     1.0  0.51252  0.86317  0.27099  1.0000
  H   H1399     1.0  0.50893  0.84751  0.27934  1.0000
  H   H1400     1.0  0.51863  0.87266  0.28725  1.0000
  O   O5561     1.0  0.03879  0.72044  0.30382  1.0000
  H   H1401     1.0  0.05610  0.72242  0.30966  1.0000
  H   H1402     1.0  0.03593  0.73322  0.28981  1.0000
  O   O5562     1.0  0.54451  0.91732  0.33426  1.0000
  H   H1403     1.0  0.54576  0.89991  0.33371  1.0000
  H   H1404     1.0  0.52714  0.92065  0.32972  1.0000
  O   O5563     1.0  0.96957  0.71247  0.40305  1.0000
  H   H1405     1.0  0.97732  0.70552  0.38589  1.0000
  H   H1406     1.0  0.97763  0.70444  0.41931  1.0000
  O   O5564     1.0  0.48324  0.97000  0.37985  1.0000
  H   H1407     1.0  0.49162  0.97041  0.36110  1.0000
  H   H1408     1.0  0.47929  0.95315  0.38289  1.0000
  O   O5565     1.0  0.39061  0.90676  0.31625  1.0000
  H   H1409     1.0  0.40606  0.90186  0.32561  1.0000
  H   H1410     1.0  0.38480  0.92032  0.32772  1.0000
  O   O5566     1.0  0.99862  0.68998  0.27163  1.0000
  H   H1411     1.0  0.98575  0.68514  0.28532  1.0000
  H   H1412     1.0  0.99868  0.70742  0.27257  1.0000
  O   O5567     1.0  0.00307  0.72440  0.22091  1.0000
  H   H1413     1.0  0.00079  0.73952  0.21067  1.0000
  H   H1414     1.0  0.00122  0.72852  0.24135  1.0000
  O   O5568     1.0  0.43581  0.89553  0.34757  1.0000
  H   H1415     1.0  0.44012  0.89099  0.32778  1.0000
  H   H1416     1.0  0.45033  0.90423  0.35461  1.0000
  O   O5569     1.0  0.45793  0.89223  0.40929  1.0000
  H   H1417     1.0  0.45605  0.90365  0.42513  1.0000
  H   H1418     1.0  0.46612  0.90129  0.39394  1.0000
  O   O5570     1.0  0.40184  0.91632  0.46117  1.0000
  H   H1419     1.0  0.41774  0.90812  0.46339  1.0000
  H   H1420     1.0  0.38994  0.90355  0.45724  1.0000
  O   O5571     1.0  0.95887  0.70355  0.20871  1.0000
  H   H1421     1.0  0.97539  0.70533  0.21717  1.0000
  H   H1422     1.0  0.95632  0.71825  0.19770  1.0000
  O   O5572     1.0  0.45475  0.92763  0.45072  1.0000
  H   H1423     1.0  0.43666  0.92710  0.45223  1.0000
  H   H1424     1.0  0.46032  0.91272  0.45958  1.0000
  O   O5573     1.0  0.92299  0.67278  0.23067  1.0000
  H   H1425     1.0  0.93586  0.68320  0.22275  1.0000
  H   H1426     1.0  0.92849  0.65664  0.22579  1.0000
  O   O5574     1.0  0.67841  0.75789  0.54811  1.0000
  H   H1427     1.0  0.68530  0.76330  0.52968  1.0000
  H   H1428     1.0  0.67048  0.77207  0.55628  1.0000
  O   O5575     1.0  0.57945  0.24084  0.31024  1.0000
  H   H1429     1.0  0.58374  0.25610  0.31920  1.0000
  H   H1430     1.0  0.56807  0.23331  0.32395  1.0000
  O   O5576     1.0  0.33663  0.22315  0.33277  1.0000
  H   H1431     1.0  0.32809  0.20907  0.34032  1.0000
  H   H1432     1.0  0.35378  0.21794  0.33002  1.0000
  O   O5577     1.0  0.75485  0.48188  0.46646  1.0000
  H   H1433     1.0  0.76544  0.47178  0.47851  1.0000
  H   H1434     1.0  0.73814  0.47547  0.46922  1.0000
  O   O5578     1.0  0.85599  0.75855  0.17826  1.0000
  H   H1435     1.0  0.85225  0.74232  0.18469  1.0000
  H   H1436     1.0  0.84018  0.76703  0.17974  1.0000
  O   O5579     1.0  0.63630  0.42699  0.45090  1.0000
  H   H1437     1.0  0.63726  0.43233  0.43080  1.0000
  H   H1438     1.0  0.64156  0.41029  0.45031  1.0000
  O   O5580     1.0  0.85707  0.77673  0.23641  1.0000
  H   H1439     1.0  0.85686  0.77035  0.21673  1.0000
  H   H1440     1.0  0.84681  0.79110  0.23542  1.0000
  O   O5581     1.0  0.91207  0.80816  0.20213  1.0000
  H   H1441     1.0  0.92890  0.80657  0.20978  1.0000
  H   H1442     1.0  0.90135  0.80693  0.21912  1.0000
  O   O5582     1.0  0.66215  0.47078  0.44102  1.0000
  H   H1443     1.0  0.65150  0.47465  0.45748  1.0000
  H   H1444     1.0  0.67868  0.46884  0.44942  1.0000
  O   O5583     1.0  0.82776  0.81925  0.23785  1.0000
  H   H1445     1.0  0.81140  0.82680  0.23780  1.0000
  H   H1446     1.0  0.83913  0.83192  0.23188  1.0000
  O   O5584     1.0  0.56270  0.45350  0.47635  1.0000
  H   H1447     1.0  0.55717  0.45187  0.49639  1.0000
  H   H1448     1.0  0.57912  0.46082  0.47779  1.0000
  O   O5585     1.0  0.61920  0.46111  0.40871  1.0000
  H   H1449     1.0  0.62357  0.46282  0.38829  1.0000
  H   H1450     1.0  0.63457  0.46461  0.41911  1.0000
  O   O5586     1.0  0.63365  0.46648  0.35078  1.0000
  H   H1451     1.0  0.62833  0.47787  0.33600  1.0000
  H   H1452     1.0  0.64800  0.47405  0.35990  1.0000
  O   O5587     1.0  0.62772  0.50377  0.31455  1.0000
  H   H1453     1.0  0.61669  0.50219  0.33122  1.0000
  H   H1454     1.0  0.61728  0.49990  0.29790  1.0000
  O   O5588     1.0  0.90477  0.81960  0.31879  1.0000
  H   H1455     1.0  0.90459  0.81729  0.29783  1.0000
  H   H1456     1.0  0.91047  0.83603  0.32142  1.0000
  O   O5589     1.0  0.86207  0.78717  0.31270  1.0000
  H   H1457     1.0  0.87691  0.79684  0.31593  1.0000
  H   H1458     1.0  0.86467  0.77289  0.32448  1.0000
  O   O5590     1.0  0.56174  0.27441  0.24282  1.0000
  H   H1459     1.0  0.55323  0.28794  0.23387  1.0000
  H   H1460     1.0  0.57896  0.27966  0.24472  1.0000
  O   O5591     1.0  0.86036  0.73782  0.34615  1.0000
  H   H1461     1.0  0.86383  0.72102  0.35024  1.0000
  H   H1462     1.0  0.87577  0.74612  0.35100  1.0000
  O   O5592     1.0  0.57414  0.35973  0.37931  1.0000
  H   H1463     1.0  0.59162  0.36438  0.37879  1.0000
  H   H1464     1.0  0.57261  0.34750  0.36433  1.0000
  O   O5593     1.0  0.62290  0.36332  0.36589  1.0000
  H   H1465     1.0  0.62194  0.36930  0.38572  1.0000
  H   H1466     1.0  0.62926  0.34705  0.36785  1.0000
  O   O5594     1.0  0.64291  0.29893  0.49194  1.0000
  H   H1467     1.0  0.64139  0.31618  0.48923  1.0000
  H   H1468     1.0  0.65721  0.29441  0.48014  1.0000
  O   O5595     1.0  0.55680  0.49732  0.17898  1.0000
  H   H1469     1.0  0.54149  0.49198  0.16965  1.0000
  H   H1470     1.0  0.55453  0.49335  0.19940  1.0000
  O   O5596     1.0  0.63944  0.34625  0.48387  1.0000
  H   H1471     1.0  0.63222  0.34457  0.46458  1.0000
  H   H1472     1.0  0.65566  0.33852  0.48243  1.0000
  O   O5597     1.0  0.63855  0.31895  0.34570  1.0000
  H   H1473     1.0  0.64089  0.30510  0.35827  1.0000
  H   H1474     1.0  0.63323  0.31220  0.32721  1.0000
  O   O5598     1.0  0.55967  0.55036  0.15081  1.0000
  H   H1475     1.0  0.56667  0.56396  0.14036  1.0000
  H   H1476     1.0  0.55572  0.53873  0.13573  1.0000
  O   O5599     1.0  0.57998  0.59141  0.12888  1.0000
  H   H1477     1.0  0.57196  0.60573  0.12123  1.0000
  H   H1478     1.0  0.59559  0.59716  0.13710  1.0000
  O   O5600     1.0  0.61864  0.25806  0.45251  1.0000
  H   H1479     1.0  0.62738  0.24865  0.43790  1.0000
  H   H1480     1.0  0.61741  0.27403  0.44409  1.0000
  O   O5601     1.0  0.67368  0.00727  0.02176  1.0000
  H   H1481     1.0  0.65713  0.01232  0.02790  1.0000
  H   H1482     1.0  0.67191  0.99025  0.01757  1.0000
  O   O5602     1.0  0.57168  0.31667  0.41723  1.0000
  H   H1483     1.0  0.58859  0.31372  0.42399  1.0000
  H   H1484     1.0  0.56983  0.30634  0.40032  1.0000
  O   O5603     1.0  0.83150  0.84751  0.86085  1.0000
  H   H1485     1.0  0.83143  0.85361  0.88066  1.0000
  H   H1486     1.0  0.83147  0.83015  0.86304  1.0000
  O   O5604     1.0  0.46402  0.24248  0.96350  1.0000
  H   H1487     1.0  0.47512  0.25062  0.94999  1.0000
  H   H1488     1.0  0.47181  0.24464  0.98241  1.0000
  O   O5605     1.0  0.27614  0.27281  0.45361  1.0000
  H   H1489     1.0  0.28095  0.27232  0.43323  1.0000
  H   H1490     1.0  0.27869  0.28943  0.45934  1.0000
  O   O5606     1.0  0.81867  0.73653  0.83980  1.0000
  H   H1491     1.0  0.80523  0.72489  0.84146  1.0000
  H   H1492     1.0  0.81106  0.75032  0.83034  1.0000
  O   O5607     1.0  0.28640  0.32350  0.46080  1.0000
  H   H1493     1.0  0.28214  0.32150  0.44039  1.0000
  H   H1494     1.0  0.30258  0.33138  0.46058  1.0000
  O   O5608     1.0  0.35229  0.47177  0.60815  1.0000
  H   H1495     1.0  0.36167  0.46032  0.61978  1.0000
  H   H1496     1.0  0.36110  0.47234  0.58968  1.0000
  O   O5609     1.0  0.61840  0.42336  0.53080  1.0000
  H   H1497     1.0  0.63563  0.42839  0.53339  1.0000
  H   H1498     1.0  0.61186  0.42201  0.55046  1.0000
  O   O5610     1.0  0.36131  0.49801  0.65785  1.0000
  H   H1499     1.0  0.34504  0.49998  0.66689  1.0000
  H   H1500     1.0  0.35801  0.48875  0.64035  1.0000
  O   O5611     1.0  0.69799  0.45899  0.60515  1.0000
  H   H1501     1.0  0.70000  0.47627  0.60327  1.0000
  H   H1502     1.0  0.68023  0.45672  0.60847  1.0000
  O   O5612     1.0  0.22248  0.68734  0.73508  1.0000
  H   H1503     1.0  0.22605  0.69225  0.71522  1.0000
  H   H1504     1.0  0.23575  0.67612  0.73989  1.0000
  O   O5613     1.0  0.77610  0.32208  0.66081  1.0000
  H   H1505     1.0  0.79042  0.31980  0.64813  1.0000
  H   H1506     1.0  0.76578  0.33379  0.65074  1.0000
  O   O5614     1.0  0.27130  0.56398  0.73036  1.0000
  H   H1507     1.0  0.25903  0.55564  0.74221  1.0000
  H   H1508     1.0  0.28111  0.55123  0.72154  1.0000
  O   O5615     1.0  0.73582  0.42087  0.61204  1.0000
  H   H1509     1.0  0.72198  0.43194  0.61470  1.0000
  H   H1510     1.0  0.73582  0.41110  0.62956  1.0000
  O   O5616     1.0  0.20534  0.59304  0.77431  1.0000
  H   H1511     1.0  0.22125  0.60142  0.77494  1.0000
  H   H1512     1.0  0.20799  0.57866  0.78589  1.0000
  O   O5617     1.0  0.14626  0.86485  0.11210  1.0000
  H   H1513     1.0  0.14662  0.86885  0.09152  1.0000
  H   H1514     1.0  0.14870  0.88011  0.12196  1.0000
  O   O5618     1.0  0.37793  0.40813  0.33732  1.0000
  H   H1515     1.0  0.38561  0.39236  0.33586  1.0000
  H   H1516     1.0  0.38325  0.41418  0.35616  1.0000
  O   O5619     1.0  0.47133  0.36193  0.44989  1.0000
  H   H1517     1.0  0.45668  0.36292  0.43747  1.0000
  H   H1518     1.0  0.46777  0.37281  0.46590  1.0000
  O   O5620     1.0  0.09218  0.87756  0.04840  1.0000
  H   H1519     1.0  0.08870  0.86044  0.04921  1.0000
  H   H1520     1.0  0.11017  0.87871  0.05073  1.0000
  O   O5621     1.0  0.33149  0.36119  0.52365  1.0000
  H   H1521     1.0  0.33648  0.34456  0.52089  1.0000
  H   H1522     1.0  0.31648  0.36028  0.53547  1.0000
  O   O5622     1.0  0.31532  0.40599  0.51573  1.0000
  H   H1523     1.0  0.33153  0.41121  0.50865  1.0000
  H   H1524     1.0  0.31752  0.38904  0.52006  1.0000
  O   O5623     1.0  0.32664  0.42018  0.45743  1.0000
  H   H1525     1.0  0.32479  0.41924  0.47843  1.0000
  H   H1526     1.0  0.31920  0.40541  0.45023  1.0000
  O   O5624     1.0  0.49275  0.52192  0.40128  1.0000
  H   H1527     1.0  0.48813  0.51708  0.42087  1.0000
  H   H1528     1.0  0.48408  0.51065  0.38869  1.0000
  O   O5625     1.0  0.14415  0.97734  0.12667  1.0000
  H   H1529     1.0  0.13812  0.96612  0.14127  1.0000
  H   H1530     1.0  0.15564  0.98772  0.13714  1.0000
  O   O5626     1.0  0.53813  0.51352  0.37584  1.0000
  H   H1531     1.0  0.52309  0.51757  0.38660  1.0000
  H   H1532     1.0  0.53224  0.50400  0.35950  1.0000
  O   O5627     1.0  0.52013  0.48695  0.33060  1.0000
  H   H1533     1.0  0.52650  0.50320  0.32852  1.0000
  H   H1534     1.0  0.53378  0.47674  0.32421  1.0000
  O   O5628     1.0  0.25604  0.01404  0.98899  1.0000
  H   H1535     1.0  0.23947  0.01520  0.99749  1.0000
  H   H1536     1.0  0.26731  0.01793  0.00487  1.0000
  O   O5629     1.0  0.47330  0.46204  0.48771  1.0000
  H   H1537     1.0  0.45728  0.45754  0.49600  1.0000
  H   H1538     1.0  0.46908  0.47103  0.47027  1.0000
  O   O5630     1.0  0.92952  0.05993  0.73329  1.0000
  H   H1539     1.0  0.92109  0.07010  0.71919  1.0000
  H   H1540     1.0  0.94609  0.06687  0.73511  1.0000
  O   O5631     1.0  0.97333  0.04099  0.74684  1.0000
  H   H1541     1.0  0.95742  0.04756  0.74052  1.0000
  H   H1542     1.0  0.98035  0.03371  0.72945  1.0000
  O   O5632     1.0  0.90519  0.11214  0.64659  1.0000
  H   H1543     1.0  0.91304  0.09996  0.65866  1.0000
  H   H1544     1.0  0.90569  0.12664  0.65834  1.0000
  O   O5633     1.0  0.36452  0.40547  0.49916  1.0000
  H   H1545     1.0  0.36672  0.41890  0.51242  1.0000
  H   H1546     1.0  0.37258  0.41060  0.48126  1.0000
  O   O5634     1.0  0.37909  0.39971  0.44414  1.0000
  H   H1547     1.0  0.39501  0.39179  0.44090  1.0000
  H   H1548     1.0  0.36699  0.38957  0.43428  1.0000
  O   O5635     1.0  0.88845  0.09616  0.78101  1.0000
  H   H1549     1.0  0.88948  0.08039  0.79000  1.0000
  H   H1550     1.0  0.89253  0.09336  0.76069  1.0000
  O   O5636     1.0  0.39260  0.37873  0.39038  1.0000
  H   H1551     1.0  0.39959  0.36592  0.37855  1.0000
  H   H1552     1.0  0.40363  0.37973  0.40712  1.0000
  O   O5637     1.0  0.92117  0.05919  0.79967  1.0000
  H   H1553     1.0  0.91443  0.07203  0.78769  1.0000
  H   H1554     1.0  0.90947  0.05777  0.81574  1.0000
  O   O5638     1.0  0.41688  0.34309  0.36401  1.0000
  H   H1555     1.0  0.40843  0.35156  0.34837  1.0000
  H   H1556     1.0  0.41742  0.32647  0.35757  1.0000
  O   O5639     1.0  0.91646  0.10080  0.58553  1.0000
  H   H1557     1.0  0.91327  0.11730  0.57972  1.0000
  H   H1558     1.0  0.91358  0.10067  0.60641  1.0000
  O   O5640     1.0  0.59454  0.34218  0.06064  1.0000
  H   H1559     1.0  0.59233  0.34012  0.03980  1.0000
  H   H1560     1.0  0.58577  0.32865  0.06925  1.0000
  O   O5641     1.0  0.77959  0.39035  0.40457  1.0000
  H   H1561     1.0  0.79580  0.39136  0.39515  1.0000
  H   H1562     1.0  0.77012  0.40363  0.39642  1.0000
  O   O5642     1.0  0.49582  0.34645  0.02782  1.0000
  H   H1563     1.0  0.49243  0.33219  0.01628  1.0000
  H   H1564     1.0  0.51294  0.34443  0.03437  1.0000
  O   O5643     1.0  0.77447  0.45209  0.23918  1.0000
  H   H1565     1.0  0.77153  0.43540  0.23404  1.0000
  H   H1566     1.0  0.76094  0.45610  0.25241  1.0000
  O   O5644     1.0  0.50387  0.30562  0.06981  1.0000
  H   H1567     1.0  0.51686  0.30231  0.05560  1.0000
  H   H1568     1.0  0.49024  0.29500  0.06440  1.0000
  O   O5645     1.0  0.47831  0.30694  0.11919  1.0000
  H   H1569     1.0  0.48952  0.30841  0.13572  1.0000
  H   H1570     1.0  0.48927  0.30660  0.10235  1.0000
  O   O5646     1.0  0.73740  0.43006  0.31386  1.0000
  H   H1571     1.0  0.75270  0.42715  0.32466  1.0000
  H   H1572     1.0  0.74103  0.44412  0.30206  1.0000
  O   O5647     1.0  0.51575  0.33959  0.11633  1.0000
  H   H1573     1.0  0.50209  0.32816  0.11767  1.0000
  H   H1574     1.0  0.51034  0.35319  0.12798  1.0000
  O   O5648     1.0  0.50538  0.38097  0.14805  1.0000
  H   H1575     1.0  0.50459  0.39270  0.16368  1.0000
  H   H1576     1.0  0.51621  0.38828  0.13358  1.0000
  O   O5649     1.0  0.28204  0.34158  0.33839  1.0000
  H   H1577     1.0  0.26503  0.34751  0.33682  1.0000
  H   H1578     1.0  0.28227  0.32717  0.32646  1.0000
  O   O5650     1.0  0.53903  0.25667  0.35020  1.0000
  H   H1579     1.0  0.53570  0.23992  0.34571  1.0000
  H   H1580     1.0  0.52287  0.26449  0.34863  1.0000
  O   O5651     1.0  0.38871  0.24933  0.36856  1.0000
  H   H1581     1.0  0.38763  0.23866  0.35187  1.0000
  H   H1582     1.0  0.39801  0.26314  0.36150  1.0000
  O   O5652     1.0  0.05543  0.30381  0.33440  1.0000
  H   H1583     1.0  0.05321  0.28941  0.34607  1.0000
  H   H1584     1.0  0.06921  0.30000  0.32145  1.0000
  O   O5653     1.0  0.41807  0.29109  0.34267  1.0000
  H   H1585     1.0  0.41176  0.28085  0.32721  1.0000
  H   H1586     1.0  0.43087  0.30080  0.33338  1.0000
  O   O5654     1.0  0.46525  0.23958  0.35162  1.0000
  H   H1587     1.0  0.47952  0.22976  0.34623  1.0000
  H   H1588     1.0  0.45319  0.23692  0.33615  1.0000
  O   O5655     1.0  0.99548  0.26196  0.39864  1.0000
  H   H1589     1.0  0.01201  0.26193  0.40736  1.0000
  H   H1590     1.0  0.98649  0.27448  0.40900  1.0000
  O   O5656     1.0  0.55507  0.33310  0.15995  1.0000
  H   H1591     1.0  0.53858  0.32646  0.15639  1.0000
  H   H1592     1.0  0.55807  0.33019  0.18051  1.0000
  O   O5657     1.0  0.54792  0.37143  0.23923  1.0000
  H   H1593     1.0  0.53387  0.36047  0.24079  1.0000
  H   H1594     1.0  0.54893  0.37904  0.25822  1.0000
  O   O5658     1.0  0.72939  0.34623  0.37850  1.0000
  H   H1595     1.0  0.71375  0.34975  0.36868  1.0000
  H   H1596     1.0  0.72835  0.32925  0.38325  1.0000
  O   O5659     1.0  0.71788  0.23394  0.45550  1.0000
  H   H1597     1.0  0.72051  0.25060  0.45000  1.0000
  H   H1598     1.0  0.73391  0.22873  0.46312  1.0000
  O   O5660     1.0  0.50783  0.34554  0.25871  1.0000
  H   H1599     1.0  0.50868  0.33420  0.24266  1.0000
  H   H1600     1.0  0.50698  0.33553  0.27601  1.0000
  O   O5661     1.0  0.76001  0.21240  0.47853  1.0000
  H   H1601     1.0  0.77761  0.20823  0.47931  1.0000
  H   H1602     1.0  0.75803  0.22485  0.49317  1.0000
  O   O5662     1.0  0.45618  0.32051  0.31692  1.0000
  H   H1603     1.0  0.44635  0.31660  0.29979  1.0000
  H   H1604     1.0  0.47340  0.31864  0.31067  1.0000
  O   O5663     1.0  0.00979  0.82953  0.91689  1.0000
  H   H1605     1.0  0.99341  0.83599  0.91228  1.0000
  H   H1606     1.0  0.02101  0.83748  0.90335  1.0000
  O   O5664     1.0  0.22747  0.78417  0.54852  1.0000
  H   H1607     1.0  0.22757  0.77225  0.56397  1.0000
  H   H1608     1.0  0.21072  0.79086  0.54898  1.0000
  O   O5665     1.0  0.60198  0.16642  0.63651  1.0000
  H   H1609     1.0  0.59815  0.18341  0.63847  1.0000
  H   H1610     1.0  0.60934  0.16497  0.61726  1.0000
  O   O5666     1.0  0.58593  0.21263  0.65711  1.0000
  H   H1611     1.0  0.57107  0.20455  0.66427  1.0000
  H   H1612     1.0  0.58717  0.22708  0.66888  1.0000
  O   O5667     1.0  0.16674  0.80039  0.65378  1.0000
  H   H1613     1.0  0.18445  0.80405  0.65265  1.0000
  H   H1614     1.0  0.15890  0.81192  0.64081  1.0000
  O   O5668     1.0  0.12683  0.80136  0.56915  1.0000
  H   H1615     1.0  0.14189  0.79682  0.55872  1.0000
  H   H1616     1.0  0.13246  0.81294  0.58354  1.0000
  O   O5669     1.0  0.61107  0.80669  0.89452  1.0000
  H   H1617     1.0  0.60284  0.82224  0.89390  1.0000
  H   H1618     1.0  0.61031  0.80196  0.91486  1.0000
  O   O5670     1.0  0.58917  0.85014  0.88587  1.0000
  H   H1619     1.0  0.57488  0.85722  0.87606  1.0000
  H   H1620     1.0  0.59827  0.86377  0.89373  1.0000
  O   O5671     1.0  0.20441  0.50219  0.40134  1.0000
  H   H1621     1.0  0.21704  0.49677  0.38766  1.0000
  H   H1622     1.0  0.19280  0.51145  0.38959  1.0000
  O   O5672     1.0  0.34341  0.67090  0.78465  1.0000
  H   H1623     1.0  0.33450  0.65575  0.78623  1.0000
  H   H1624     1.0  0.35877  0.66686  0.77452  1.0000
  O   O5673     1.0  0.30071  0.47042  0.35153  1.0000
  H   H1625     1.0  0.30924  0.46938  0.37015  1.0000
  H   H1626     1.0  0.29035  0.48469  0.35313  1.0000
  O   O5674     1.0  0.41446  0.46507  0.44624  1.0000
  H   H1627     1.0  0.42972  0.47316  0.44038  1.0000
  H   H1628     1.0  0.41762  0.45991  0.46610  1.0000
  O   O5675     1.0  0.44098  0.64751  0.67898  1.0000
  H   H1629     1.0  0.43633  0.65100  0.69898  1.0000
  H   H1630     1.0  0.45831  0.64243  0.68014  1.0000
  O   O5676     1.0  0.36667  0.47724  0.46036  1.0000
  H   H1631     1.0  0.35230  0.48307  0.44957  1.0000
  H   H1632     1.0  0.37969  0.47548  0.44579  1.0000
  O   O5677     1.0  0.48285  0.58254  0.68254  1.0000
  H   H1633     1.0  0.46617  0.57576  0.68387  1.0000
  H   H1634     1.0  0.48013  0.59970  0.68036  1.0000
  O   O5678     1.0  0.28292  0.44693  0.41201  1.0000
  H   H1635     1.0  0.29006  0.46292  0.41368  1.0000
  H   H1636     1.0  0.26957  0.44666  0.42632  1.0000
  O   O5679     1.0  0.50613  0.58890  0.73539  1.0000
  H   H1637     1.0  0.49719  0.58264  0.71863  1.0000
  H   H1638     1.0  0.50664  0.57556  0.74902  1.0000
  O   O5680     1.0  0.17149  0.37209  0.40830  1.0000
  H   H1639     1.0  0.15385  0.36815  0.40954  1.0000
  H   H1640     1.0  0.17786  0.36925  0.42780  1.0000
  O   O5681     1.0  0.22166  0.35656  0.40888  1.0000
  H   H1641     1.0  0.20366  0.35584  0.40637  1.0000
  H   H1642     1.0  0.22488  0.37291  0.41527  1.0000
  O   O5682     1.0  0.16189  0.33814  0.51845  1.0000
  H   H1643     1.0  0.14619  0.34686  0.51764  1.0000
  H   H1644     1.0  0.17001  0.34176  0.50006  1.0000
  O   O5683     1.0  0.50851  0.57500  0.85657  1.0000
  H   H1645     1.0  0.51726  0.56936  0.87379  1.0000
  H   H1646     1.0  0.51968  0.57125  0.84054  1.0000
  O   O5684     1.0  0.56284  0.55657  0.95306  1.0000
  H   H1647     1.0  0.54957  0.55658  0.93865  1.0000
  H   H1648     1.0  0.57812  0.55557  0.94172  1.0000
  O   O5685     1.0  0.54349  0.55526  0.89432  1.0000
  H   H1649     1.0  0.56066  0.55752  0.90057  1.0000
  H   H1650     1.0  0.53364  0.56411  0.90847  1.0000
  O   O5686     1.0  0.59417  0.55340  0.89786  1.0000
  H   H1651     1.0  0.58706  0.56741  0.88836  1.0000
  H   H1652     1.0  0.58501  0.53990  0.88975  1.0000
  O   O5687     1.0  0.51990  0.14509  0.35225  1.0000
  H   H1653     1.0  0.52031  0.12766  0.35320  1.0000
  H   H1654     1.0  0.50232  0.14901  0.35010  1.0000
  O   O5688     1.0  0.15242  0.52312  0.44921  1.0000
  H   H1655     1.0  0.14366  0.52225  0.43073  1.0000
  H   H1656     1.0  0.14502  0.53681  0.45910  1.0000
  O   O5689     1.0  0.44756  0.12905  0.35045  1.0000
  H   H1657     1.0  0.43338  0.13817  0.34325  1.0000
  H   H1658     1.0  0.46112  0.14062  0.35126  1.0000
  O   O5690     1.0  0.24434  0.75943  0.70289  1.0000
  H   H1659     1.0  0.23395  0.77051  0.69193  1.0000
  H   H1660     1.0  0.25715  0.75443  0.68920  1.0000
  O   O5691     1.0  0.46917  0.07109  0.28634  1.0000
  H   H1661     1.0  0.45663  0.05867  0.28364  1.0000
  H   H1662     1.0  0.47041  0.07297  0.30731  1.0000
  O   O5692     1.0  0.37368  0.80978  0.70385  1.0000
  H   H1663     1.0  0.36736  0.79866  0.68931  1.0000
  H   H1664     1.0  0.36442  0.80588  0.72141  1.0000
  O   O5693     1.0  0.34591  0.77274  0.67705  1.0000
  H   H1665     1.0  0.33461  0.76724  0.66191  1.0000
  H   H1666     1.0  0.35743  0.75946  0.67985  1.0000
  O   O5694     1.0  0.31019  0.90545  0.54398  1.0000
  H   H1667     1.0  0.29965  0.91881  0.53813  1.0000
  H   H1668     1.0  0.31559  0.90952  0.56356  1.0000
  O   O5695     1.0  0.42302  0.76733  0.70810  1.0000
  H   H1669     1.0  0.41852  0.77589  0.69043  1.0000
  H   H1670     1.0  0.40848  0.76890  0.72059  1.0000
  O   O5696     1.0  0.38206  0.74291  0.69375  1.0000
  H   H1671     1.0  0.38391  0.72561  0.69198  1.0000
  H   H1672     1.0  0.39861  0.74860  0.69900  1.0000
  O   O5697     1.0  0.32074  0.73293  0.70388  1.0000
  H   H1673     1.0  0.33220  0.74553  0.69792  1.0000
  H   H1674     1.0  0.30635  0.73492  0.69124  1.0000
  O   O5698     1.0  0.31320  0.00515  0.56424  1.0000
  H   H1675     1.0  0.32546  0.01202  0.55106  1.0000
  H   H1676     1.0  0.31944  0.98912  0.56838  1.0000
  O   O5699     1.0  0.35002  0.02512  0.52504  1.0000
  H   H1677     1.0  0.34611  0.00836  0.52882  1.0000
  H   H1678     1.0  0.33513  0.03147  0.51574  1.0000
  O   O5700     1.0  0.21132  0.83427  0.60104  1.0000
  H   H1679     1.0  0.22073  0.84378  0.58711  1.0000
  H   H1680     1.0  0.21522  0.84139  0.61980  1.0000
  O   O5701     1.0  0.33690  0.79235  0.59761  1.0000
  H   H1681     1.0  0.32490  0.79804  0.58332  1.0000
  H   H1682     1.0  0.32720  0.78225  0.61063  1.0000
  O   O5702     1.0  0.24027  0.86430  0.56391  1.0000
  H   H1683     1.0  0.25356  0.85347  0.55799  1.0000
  H   H1684     1.0  0.24299  0.86673  0.58461  1.0000
  O   O5703     1.0  0.15974  0.83147  0.46243  1.0000
  H   H1685     1.0  0.16340  0.84252  0.44663  1.0000
  H   H1686     1.0  0.14694  0.83954  0.47378  1.0000
  O   O5704     1.0  0.13850  0.82369  0.51362  1.0000
  H   H1687     1.0  0.14882  0.82208  0.49634  1.0000
  H   H1688     1.0  0.12915  0.83843  0.51051  1.0000
  O   O5705     1.0  0.62286  0.91707  0.05487  1.0000
  H   H1689     1.0  0.61763  0.90233  0.06442  1.0000
  H   H1690     1.0  0.61934  0.91436  0.03439  1.0000
  O   O5706     1.0  0.04945  0.54812  0.53271  1.0000
  H   H1691     1.0  0.06624  0.54498  0.52566  1.0000
  H   H1692     1.0  0.03876  0.54507  0.51603  1.0000
  O   O5707     1.0  0.49923  0.93675  0.01567  1.0000
  H   H1693     1.0  0.50565  0.95146  0.00708  1.0000
  H   H1694     1.0  0.51335  0.93001  0.02613  1.0000
  O   O5708     1.0  0.10189  0.74581  0.44095  1.0000
  H   H1695     1.0  0.10977  0.74093  0.42284  1.0000
  H   H1696     1.0  0.11025  0.76068  0.44621  1.0000
  O   O5709     1.0  0.14573  0.73461  0.36309  1.0000
  H   H1697     1.0  0.13734  0.72686  0.34687  1.0000
  H   H1698     1.0  0.13587  0.73021  0.38002  1.0000
  O   O5710     1.0  0.52506  0.90344  0.05053  1.0000
  H   H1699     1.0  0.54227  0.89908  0.05461  1.0000
  H   H1700     1.0  0.52207  0.89755  0.03093  1.0000
  O   O5711     1.0  0.92549  0.20417  0.85071  1.0000
  H   H1701     1.0  0.91921  0.19767  0.83250  1.0000
  H   H1702     1.0  0.93331  0.21927  0.84529  1.0000
  O   O5712     1.0  0.18501  0.72849  0.40665  1.0000
  H   H1703     1.0  0.19145  0.74172  0.41822  1.0000
  H   H1704     1.0  0.17237  0.73576  0.39430  1.0000
  O   O5713     1.0  0.53751  0.42799  0.33955  1.0000
  H   H1705     1.0  0.54778  0.43976  0.32954  1.0000
  H   H1706     1.0  0.52726  0.42096  0.32432  1.0000
  O   O5714     1.0  0.06620  0.67079  0.45774  1.0000
  H   H1707     1.0  0.04866  0.66678  0.46003  1.0000
  H   H1708     1.0  0.07501  0.65826  0.46829  1.0000
  O   O5715     1.0  0.14403  0.62157  0.45220  1.0000
  H   H1709     1.0  0.13899  0.63132  0.46873  1.0000
  H   H1710     1.0  0.12999  0.61086  0.44886  1.0000
  O   O5716     1.0  0.18277  0.64936  0.47165  1.0000
  H   H1711     1.0  0.16873  0.64133  0.46246  1.0000
  H   H1712     1.0  0.18717  0.63905  0.48793  1.0000
  O   O5717     1.0  0.20068  0.11816  0.25349  1.0000
  H   H1713     1.0  0.18304  0.12073  0.24968  1.0000
  H   H1714     1.0  0.20153  0.11474  0.27420  1.0000
  O   O5718     1.0  0.11460  0.59238  0.51858  1.0000
  H   H1715     1.0  0.13211  0.59383  0.51335  1.0000
  H   H1716     1.0  0.10993  0.60832  0.52525  1.0000
  O   O5719     1.0  0.14920  0.00497  0.42691  1.0000
  H   H1717     1.0  0.13612  0.99954  0.44000  1.0000
  H   H1718     1.0  0.14139  0.01752  0.41537  1.0000
  O   O5720     1.0  0.10487  0.67880  0.56591  1.0000
  H   H1719     1.0  0.10334  0.69114  0.58076  1.0000
  H   H1720     1.0  0.08802  0.67266  0.56349  1.0000
  O   O5721     1.0  0.32267  0.69384  0.54451  1.0000
  H   H1721     1.0  0.31695  0.69361  0.52444  1.0000
  H   H1722     1.0  0.33367  0.70769  0.54560  1.0000
  O   O5722     1.0  0.10587  0.12026  0.36154  1.0000
  H   H1723     1.0  0.10061  0.10736  0.34869  1.0000
  H   H1724     1.0  0.12120  0.12626  0.35289  1.0000
  O   O5723     1.0  0.11841  0.01535  0.33441  1.0000
  H   H1725     1.0  0.10634  0.00763  0.34712  1.0000
  H   H1726     1.0  0.10907  0.02807  0.32487  1.0000
  O   O5724     1.0  0.35063  0.73251  0.53756  1.0000
  H   H1727     1.0  0.36060  0.74320  0.54957  1.0000
  H   H1728     1.0  0.34338  0.74290  0.52283  1.0000
  O   O5725     1.0  0.33596  0.81003  0.49037  1.0000
  H   H1729     1.0  0.34178  0.79638  0.47906  1.0000
  H   H1730     1.0  0.32304  0.81728  0.47841  1.0000
  O   O5726     1.0  0.14537  0.19383  0.34642  1.0000
  H   H1731     1.0  0.13873  0.18262  0.36066  1.0000
  H   H1732     1.0  0.13070  0.20125  0.33782  1.0000
  O   O5727     1.0  0.45498  0.70868  0.67822  1.0000
  H   H1733     1.0  0.46846  0.69855  0.67117  1.0000
  H   H1734     1.0  0.45153  0.70274  0.69769  1.0000
  O   O5728     1.0  0.08337  0.98981  0.37451  1.0000
  H   H1735     1.0  0.06999  0.98743  0.36053  1.0000
  H   H1736     1.0  0.09142  0.97421  0.37595  1.0000
  O   O5729     1.0  0.46417  0.72032  0.62307  1.0000
  H   H1737     1.0  0.46439  0.71375  0.64266  1.0000
  H   H1738     1.0  0.44957  0.73067  0.62267  1.0000
  O   O5730     1.0  0.40248  0.72117  0.58615  1.0000
  H   H1739     1.0  0.41146  0.72712  0.60305  1.0000
  H   H1740     1.0  0.39319  0.73498  0.57908  1.0000
  O   O5731     1.0  0.82710  0.96854  0.83971  1.0000
  H   H1741     1.0  0.81745  0.96204  0.82363  1.0000
  H   H1742     1.0  0.84067  0.95717  0.84236  1.0000
  O   O5732     1.0  0.86897  0.98935  0.81754  1.0000
  H   H1743     1.0  0.86255  0.00341  0.80750  1.0000
  H   H1744     1.0  0.85425  0.98164  0.82564  1.0000
  O   O5733     1.0  0.15275  0.71117  0.57319  1.0000
  H   H1745     1.0  0.16622  0.69963  0.57542  1.0000
  H   H1746     1.0  0.14344  0.71011  0.59130  1.0000
  O   O5734     1.0  0.84553  0.02771  0.79098  1.0000
  H   H1747     1.0  0.84067  0.01978  0.77301  1.0000
  H   H1748     1.0  0.83002  0.03404  0.79882  1.0000
  O   O5735     1.0  0.24159  0.72580  0.55607  1.0000
  H   H1749     1.0  0.23394  0.71144  0.54803  1.0000
  H   H1750     1.0  0.22948  0.73176  0.57006  1.0000
  O   O5736     1.0  0.72213  0.01382  0.75674  1.0000
  H   H1751     1.0  0.70424  0.01120  0.75827  1.0000
  H   H1752     1.0  0.72598  0.02489  0.77246  1.0000
  O   O5737     1.0  0.25753  0.77532  0.61611  1.0000
  H   H1753     1.0  0.24316  0.76653  0.60884  1.0000
  H   H1754     1.0  0.25778  0.79004  0.60474  1.0000
  O   O5738     1.0  0.17447  0.73002  0.62021  1.0000
  H   H1755     1.0  0.16953  0.72758  0.60008  1.0000
  H   H1756     1.0  0.18528  0.74403  0.61968  1.0000
  O   O5739     1.0  0.70355  0.07766  0.77838  1.0000
  H   H1757     1.0  0.71582  0.06802  0.78869  1.0000
  H   H1758     1.0  0.69399  0.06610  0.76712  1.0000
  O   O5740     1.0  0.09385  0.69165  0.50432  1.0000
  H   H1759     1.0  0.10381  0.70584  0.50023  1.0000
  H   H1760     1.0  0.08616  0.68763  0.48580  1.0000
  O   O5741     1.0  0.12277  0.73030  0.50047  1.0000
  H   H1761     1.0  0.13406  0.72334  0.48623  1.0000
  H   H1762     1.0  0.13073  0.74526  0.50618  1.0000
  O   O5742     1.0  0.15793  0.76720  0.50256  1.0000
  H   H1763     1.0  0.15521  0.75292  0.49081  1.0000
  H   H1764     1.0  0.17572  0.77034  0.50091  1.0000
  O   O5743     1.0  0.16367  0.72776  0.46685  1.0000
  H   H1765     1.0  0.16759  0.73450  0.48581  1.0000
  H   H1766     1.0  0.17570  0.71487  0.46429  1.0000
  O   O5744     1.0  0.19640  0.06817  0.68230  1.0000
  H   H1767     1.0  0.20362  0.06102  0.69966  1.0000
  H   H1768     1.0  0.19975  0.05660  0.66696  1.0000
  O   O5745     1.0  0.23349  0.02334  0.76696  1.0000
  H   H1769     1.0  0.25101  0.01890  0.76593  1.0000
  H   H1770     1.0  0.22891  0.02699  0.74698  1.0000
  O   O5746     1.0  0.25783  0.82320  0.41956  1.0000
  H   H1771     1.0  0.27310  0.82945  0.42810  1.0000
  H   H1772     1.0  0.25326  0.80976  0.43196  1.0000
  O   O5747     1.0  0.25267  0.78799  0.45952  1.0000
  H   H1773     1.0  0.23866  0.77707  0.45717  1.0000
  H   H1774     1.0  0.26002  0.78353  0.47808  1.0000
  O   O5748     1.0  0.25318  0.03994  0.82053  1.0000
  H   H1775     1.0  0.27015  0.03660  0.82680  1.0000
  H   H1776     1.0  0.25178  0.03212  0.80170  1.0000
  O   O5749     1.0  0.28835  0.74540  0.54378  1.0000
  H   H1777     1.0  0.27228  0.73825  0.54837  1.0000
  H   H1778     1.0  0.28435  0.75894  0.53128  1.0000
  O   O5750     1.0  0.28043  0.78313  0.50931  1.0000
  H   H1779     1.0  0.28927  0.79117  0.52500  1.0000
  H   H1780     1.0  0.29226  0.78292  0.49328  1.0000
  O   O5751     1.0  0.30043  0.11105  0.75388  1.0000
  H   H1781     1.0  0.30284  0.09445  0.74797  1.0000
  H   H1782     1.0  0.29714  0.11017  0.77465  1.0000
  O   O5752     1.0  0.93485  0.66592  0.61138  1.0000
  H   H1783     1.0  0.92990  0.66884  0.59135  1.0000
  H   H1784     1.0  0.95120  0.65847  0.60989  1.0000
  O   O5753     1.0  0.30479  0.06123  0.75381  1.0000
  H   H1785     1.0  0.30434  0.06412  0.77466  1.0000
  H   H1786     1.0  0.31463  0.04667  0.75168  1.0000
  O   O5754     1.0  0.27677  0.02886  0.62681  1.0000
  H   H1787     1.0  0.27183  0.04062  0.64134  1.0000
  H   H1788     1.0  0.26797  0.03370  0.60928  1.0000
  O   O5755     1.0  0.06532  0.57913  0.62356  1.0000
  H   H1789     1.0  0.07287  0.57395  0.60539  1.0000
  H   H1790     1.0  0.05976  0.59544  0.61976  1.0000
  O   O5756     1.0  0.04961  0.53588  0.59361  1.0000
  H   H1791     1.0  0.05482  0.55008  0.60430  1.0000
  H   H1792     1.0  0.04984  0.54083  0.57333  1.0000
  O   O5757     1.0  0.28468  0.01111  0.75794  1.0000
  H   H1793     1.0  0.27895  0.01593  0.73874  1.0000
  H   H1794     1.0  0.30160  0.01731  0.75920  1.0000
  O   O5758     1.0  0.03310  0.60758  0.51536  1.0000
  H   H1795     1.0  0.04571  0.61006  0.53026  1.0000
  H   H1796     1.0  0.03302  0.62245  0.50429  1.0000
  O   O5759     1.0  0.97269  0.57359  0.43884  1.0000
  H   H1797     1.0  0.98837  0.57808  0.44797  1.0000
  H   H1798     1.0  0.96631  0.58849  0.43071  1.0000
  O   O5760     1.0  0.15901  0.14765  0.49957  1.0000
  H   H1799     1.0  0.17091  0.13450  0.49865  1.0000
  H   H1800     1.0  0.15294  0.14932  0.47975  1.0000
  O   O5761     1.0  0.97884  0.61082  0.49493  1.0000
  H   H1801     1.0  0.99428  0.60383  0.48775  1.0000
  H   H1802     1.0  0.98417  0.62428  0.50687  1.0000
  O   O5762     1.0  0.64403  0.67537  0.32477  1.0000
  H   H1803     1.0  0.65471  0.68054  0.30887  1.0000
  H   H1804     1.0  0.62904  0.68506  0.32276  1.0000
  O   O5763     1.0  0.06057  0.56636  0.43590  1.0000
  H   H1805     1.0  0.07756  0.56809  0.44301  1.0000
  H   H1806     1.0  0.05489  0.58273  0.43272  1.0000
  O   O5764     1.0  0.01719  0.58130  0.46608  1.0000
  H   H1807     1.0  0.03188  0.57602  0.45545  1.0000
  H   H1808     1.0  0.02380  0.59014  0.48260  1.0000
  O   O5765     1.0  0.44683  0.16312  0.81166  1.0000
  H   H1809     1.0  0.43326  0.17296  0.81907  1.0000
  H   H1810     1.0  0.45848  0.16194  0.82780  1.0000
  O   O5766     1.0  0.41675  0.19226  0.85082  1.0000
  H   H1811     1.0  0.40941  0.20755  0.85639  1.0000
  H   H1812     1.0  0.41624  0.19228  0.82968  1.0000
  O   O5767     1.0  0.34285  0.97263  0.48385  1.0000
  H   H1813     1.0  0.35850  0.96936  0.49378  1.0000
  H   H1814     1.0  0.34160  0.96012  0.46918  1.0000
  O   O5768     1.0  0.37919  0.23808  0.76165  1.0000
  H   H1815     1.0  0.39722  0.23951  0.76325  1.0000
  H   H1816     1.0  0.37658  0.22307  0.75130  1.0000
  O   O5769     1.0  0.34288  0.91884  0.49213  1.0000
  H   H1817     1.0  0.35829  0.91431  0.50184  1.0000
  H   H1818     1.0  0.34819  0.92499  0.47334  1.0000
  O   O5770     1.0  0.42472  0.16571  0.74949  1.0000
  H   H1819     1.0  0.42126  0.14875  0.74657  1.0000
  H   H1820     1.0  0.40967  0.17382  0.74293  1.0000
  O   O5771     1.0  0.24518  0.55239  0.59075  1.0000
  H   H1821     1.0  0.22910  0.55847  0.59720  1.0000
  H   H1822     1.0  0.24915  0.56192  0.57365  1.0000
  O   O5772     1.0  0.42972  0.76301  0.55087  1.0000
  H   H1823     1.0  0.42898  0.77217  0.53289  1.0000
  H   H1824     1.0  0.41265  0.76295  0.55802  1.0000
  O   O5773     1.0  0.20506  0.63474  0.67147  1.0000
  H   H1825     1.0  0.19108  0.63692  0.65826  1.0000
  H   H1826     1.0  0.20714  0.61743  0.67277  1.0000
  O   O5774     1.0  0.35652  0.85294  0.54496  1.0000
  H   H1827     1.0  0.36783  0.84294  0.53371  1.0000
  H   H1828     1.0  0.36242  0.86923  0.54174  1.0000
  O   O5775     1.0  0.25351  0.57008  0.64934  1.0000
  H   H1829     1.0  0.25267  0.56550  0.62896  1.0000
  H   H1830     1.0  0.23986  0.56140  0.65846  1.0000
  O   O5776     1.0  0.35389  0.84598  0.60190  1.0000
  H   H1831     1.0  0.33599  0.84323  0.60266  1.0000
  H   H1832     1.0  0.35738  0.84886  0.58145  1.0000
  O   O5777     1.0  0.39223  0.82634  0.51010  1.0000
  H   H1833     1.0  0.38068  0.81497  0.51882  1.0000
  H   H1834     1.0  0.40629  0.81658  0.50387  1.0000
  O   O5778     1.0  0.20666  0.36228  0.24744  1.0000
  H   H1835     1.0  0.20806  0.36569  0.26811  1.0000
  H   H1836     1.0  0.20555  0.37799  0.23832  1.0000
  O   O5779     1.0  0.64038  0.59122  0.63308  1.0000
  H   H1837     1.0  0.62469  0.58281  0.63013  1.0000
  H   H1838     1.0  0.65275  0.57853  0.63472  1.0000
  O   O5780     1.0  0.26682  0.33822  0.17018  1.0000
  H   H1839     1.0  0.26268  0.32992  0.15221  1.0000
  H   H1840     1.0  0.25130  0.34581  0.17613  1.0000
  O   O5781     1.0  0.30059  0.36587  0.19769  1.0000
  H   H1841     1.0  0.30565  0.37841  0.18421  1.0000
  H   H1842     1.0  0.28849  0.35639  0.18691  1.0000
  O   O5782     1.0  0.48680  0.67810  0.60044  1.0000
  H   H1843     1.0  0.50098  0.66988  0.59180  1.0000
  H   H1844     1.0  0.49323  0.68474  0.61850  1.0000
  O   O5783     1.0  0.24975  0.33828  0.01933  1.0000
  H   H1845     1.0  0.25301  0.32146  0.01512  1.0000
  H   H1846     1.0  0.26528  0.34421  0.02756  1.0000
  O   O5784     1.0  0.59286  0.64622  0.63447  1.0000
  H   H1847     1.0  0.58514  0.63884  0.65139  1.0000
  H   H1848     1.0  0.58271  0.66033  0.63058  1.0000
  O   O5785     1.0  0.24571  0.41256  0.04704  1.0000
  H   H1849     1.0  0.26205  0.40707  0.05338  1.0000
  H   H1850     1.0  0.23836  0.41978  0.06428  1.0000
  O   O5786     1.0  0.24195  0.37675  0.08789  1.0000
  H   H1851     1.0  0.25659  0.37785  0.10031  1.0000
  H   H1852     1.0  0.24403  0.38966  0.07386  1.0000
  O   O5787     1.0  0.53244  0.61573  0.62110  1.0000
  H   H1853     1.0  0.53709  0.60939  0.60216  1.0000
  H   H1854     1.0  0.53188  0.63303  0.61834  1.0000
  O   O5788     1.0  0.23228  0.39889  0.14736  1.0000
  H   H1855     1.0  0.22756  0.40644  0.12910  1.0000
  H   H1856     1.0  0.22418  0.38328  0.14688  1.0000
  O   O5789     1.0  0.26892  0.42567  0.17159  1.0000
  H   H1857     1.0  0.25440  0.41621  0.16617  1.0000
  H   H1858     1.0  0.27897  0.42634  0.15400  1.0000
  O   O5790     1.0  0.50165  0.56535  0.51709  1.0000
  H   H1859     1.0  0.50097  0.54807  0.51995  1.0000
  H   H1860     1.0  0.50344  0.57191  0.53658  1.0000
  O   O5791     1.0  0.22729  0.43294  0.09990  1.0000
  H   H1861     1.0  0.21018  0.42754  0.10245  1.0000
  H   H1862     1.0  0.22773  0.44871  0.10896  1.0000
  O   O5792     1.0  0.58904  0.58726  0.58118  1.0000
  H   H1863     1.0  0.58169  0.60259  0.57581  1.0000
  H   H1864     1.0  0.57554  0.57575  0.57896  1.0000
  O   O5793     1.0  0.62798  0.40581  0.64830  1.0000
  H   H1865     1.0  0.63855  0.41688  0.65905  1.0000
  H   H1866     1.0  0.61120  0.41213  0.65073  1.0000
  O   O5794     1.0  0.55782  0.48440  0.67725  1.0000
  H   H1867     1.0  0.55911  0.49883  0.68905  1.0000
  H   H1868     1.0  0.54430  0.47531  0.68606  1.0000
  O   O5795     1.0  0.52039  0.45977  0.70209  1.0000
  H   H1869     1.0  0.53188  0.45427  0.71703  1.0000
  H   H1870     1.0  0.50967  0.47123  0.71199  1.0000
  O   O5796     1.0  0.67545  0.84169  0.68705  1.0000
  H   H1871     1.0  0.69066  0.84859  0.67912  1.0000
  H   H1872     1.0  0.68090  0.82709  0.69673  1.0000
  O   O5797     1.0  0.56015  0.56553  0.63084  1.0000
  H   H1873     1.0  0.56886  0.55808  0.61463  1.0000
  H   H1874     1.0  0.54328  0.55919  0.62971  1.0000
  O   O5798     1.0  0.03053  0.14825  0.39584  1.0000
  H   H1875     1.0  0.02125  0.13332  0.39760  1.0000
  H   H1876     1.0  0.02528  0.15489  0.37727  1.0000
  O   O5799     1.0  0.58697  0.50895  0.63007  1.0000
  H   H1877     1.0  0.59630  0.52381  0.62794  1.0000
  H   H1878     1.0  0.57519  0.50909  0.61399  1.0000
  O   O5800     1.0  0.05393  0.10523  0.39406  1.0000
  H   H1879     1.0  0.06975  0.11235  0.39979  1.0000
  H   H1880     1.0  0.04235  0.11866  0.39343  1.0000
  O   O5801     1.0  0.60759  0.49913  0.69296  1.0000
  H   H1881     1.0  0.61910  0.49776  0.67670  1.0000
  H   H1882     1.0  0.60034  0.51504  0.69091  1.0000
  O   O5802     1.0  0.01305  0.16400  0.27784  1.0000
  H   H1883     1.0  0.00833  0.16228  0.29815  1.0000
  H   H1884     1.0  0.99731  0.16592  0.26759  1.0000
  O   O5803     1.0  0.63843  0.49966  0.64599  1.0000
  H   H1885     1.0  0.63205  0.48674  0.63388  1.0000
  H   H1886     1.0  0.64267  0.51235  0.63234  1.0000
  O   O5804     1.0  0.94855  0.16035  0.16808  1.0000
  H   H1887     1.0  0.94621  0.16599  0.14825  1.0000
  H   H1888     1.0  0.95328  0.17462  0.17893  1.0000
  O   O5805     1.0  0.86969  0.22181  0.42891  1.0000
  H   H1889     1.0  0.86318  0.22320  0.40924  1.0000
  H   H1890     1.0  0.87874  0.23671  0.43209  1.0000
  O   O5806     1.0  0.85951  0.24226  0.48270  1.0000
  H   H1891     1.0  0.86433  0.22728  0.49199  1.0000
  H   H1892     1.0  0.86169  0.23927  0.46202  1.0000
  O   O5807     1.0  0.15068  0.95709  0.64847  1.0000
  H   H1893     1.0  0.15542  0.97222  0.65745  1.0000
  H   H1894     1.0  0.13288  0.95866  0.64488  1.0000
  O   O5808     1.0  0.11326  0.01351  0.73854  1.0000
  H   H1895     1.0  0.10621  0.00526  0.72181  1.0000
  H   H1896     1.0  0.12635  0.02359  0.73046  1.0000
  O   O5809     1.0  0.16673  0.93119  0.26699  1.0000
  H   H1897     1.0  0.15099  0.93408  0.25709  1.0000
  H   H1898     1.0  0.16294  0.91878  0.28119  1.0000
  O   O5810     1.0  0.09720  0.90612  0.20784  1.0000
  H   H1899     1.0  0.10807  0.89736  0.19465  1.0000
  H   H1900     1.0  0.10784  0.91027  0.22421  1.0000
  O   O5811     1.0  0.93174  0.38862  0.22197  1.0000
  H   H1901     1.0  0.93976  0.38223  0.23929  1.0000
  H   H1902     1.0  0.92844  0.37460  0.20998  1.0000
  O   O5812     1.0  0.97992  0.34431  0.31096  1.0000
  H   H1903     1.0  0.97116  0.32904  0.31009  1.0000
  H   H1904     1.0  0.98423  0.34780  0.29086  1.0000
  O   O5813     1.0  0.99665  0.36234  0.25572  1.0000
  H   H1905     1.0  0.01190  0.35374  0.26047  1.0000
  H   H1906     1.0  0.98397  0.34990  0.25438  1.0000
  O   O5814     1.0  0.92409  0.34214  0.25705  1.0000
  H   H1907     1.0  0.94123  0.33760  0.25285  1.0000
  H   H1908     1.0  0.91825  0.33000  0.27064  1.0000
  O   O5815     1.0  0.43749  0.33523  0.52244  1.0000
  H   H1909     1.0  0.44845  0.33127  0.53860  1.0000
  H   H1910     1.0  0.42081  0.33481  0.53072  1.0000
  O   O5816     1.0  0.51486  0.30327  0.59881  1.0000
  H   H1911     1.0  0.50961  0.28688  0.59491  1.0000
  H   H1912     1.0  0.51634  0.30408  0.61986  1.0000
  O   O5817     1.0  0.45598  0.94413  0.97656  1.0000
  H   H1913     1.0  0.43917  0.93792  0.97909  1.0000
  H   H1914     1.0  0.45367  0.95961  0.96718  1.0000
  O   O5818     1.0  0.37239  0.89645  0.97591  1.0000
  H   H1915     1.0  0.38843  0.90354  0.98080  1.0000
  H   H1916     1.0  0.36279  0.89737  0.99382  1.0000
  O   O5819     1.0  0.47646  0.79330  0.97245  1.0000
  H   H1917     1.0  0.48767  0.80560  0.96508  1.0000
  H   H1918     1.0  0.46030  0.79734  0.96418  1.0000
  O   O5820     1.0  0.40352  0.80009  0.89448  1.0000
  H   H1919     1.0  0.40501  0.80129  0.87346  1.0000
  H   H1920     1.0  0.41416  0.78663  0.89971  1.0000
  O   O5821     1.0  0.44275  0.78908  0.84730  1.0000
  H   H1921     1.0  0.45305  0.80082  0.85734  1.0000
  H   H1922     1.0  0.42739  0.79762  0.84289  1.0000
  O   O5822     1.0  0.46104  0.85050  0.92602  1.0000
  H   H1923     1.0  0.46386  0.84168  0.90807  1.0000
  H   H1924     1.0  0.44300  0.85070  0.92826  1.0000
  O   O5823     1.0  0.44699  0.95032  0.13349  1.0000
  H   H1925     1.0  0.44531  0.93636  0.12096  1.0000
  H   H1926     1.0  0.46208  0.95824  0.12673  1.0000
  O   O5824     1.0  0.40708  0.93679  0.09376  1.0000
  H   H1927     1.0  0.40875  0.93860  0.07282  1.0000
  H   H1928     1.0  0.42284  0.94257  0.10155  1.0000
  O   O5825     1.0  0.46832  0.87840  0.99763  1.0000
  H   H1929     1.0  0.46436  0.88412  0.01707  1.0000
  H   H1930     1.0  0.45451  0.88391  0.98566  1.0000
  O   O5826     1.0  0.81478  0.14425  0.91176  1.0000
  H   H1931     1.0  0.83087  0.13747  0.90647  1.0000
  H   H1932     1.0  0.80930  0.13470  0.92827  1.0000
  O   O5827     1.0  0.74558  0.78845  0.16997  1.0000
  H   H1933     1.0  0.74518  0.77184  0.16349  1.0000
  H   H1934     1.0  0.74575  0.78744  0.19108  1.0000
  O   O5828     1.0  0.77072  0.82914  0.15171  1.0000
  H   H1935     1.0  0.76251  0.81646  0.16265  1.0000
  H   H1936     1.0  0.76929  0.82415  0.13151  1.0000
  O   O5829     1.0  0.69913  0.75739  0.25637  1.0000
  H   H1937     1.0  0.69525  0.75450  0.27673  1.0000
  H   H1938     1.0  0.71063  0.77089  0.25665  1.0000
  O   O5830     1.0  0.73261  0.72262  0.24703  1.0000
  H   H1939     1.0  0.71759  0.73046  0.25412  1.0000
  H   H1940     1.0  0.74147  0.73511  0.23646  1.0000
  O   O5831     1.0  0.73159  0.67840  0.22308  1.0000
  H   H1941     1.0  0.73665  0.69183  0.23523  1.0000
  H   H1942     1.0  0.71758  0.68451  0.21187  1.0000
  O   O5832     1.0  0.71585  0.86836  0.25697  1.0000
  H   H1943     1.0  0.72441  0.85514  0.26650  1.0000
  H   H1944     1.0  0.70571  0.87554  0.27219  1.0000
  O   O5833     1.0  0.02035  0.92747  0.23253  1.0000
  H   H1945     1.0  0.01776  0.91440  0.24621  1.0000
  H   H1946     1.0  0.01763  0.92026  0.21353  1.0000
  O   O5834     1.0  0.28957  0.89049  0.72443  1.0000
  H   H1947     1.0  0.27690  0.88014  0.71597  1.0000
  H   H1948     1.0  0.30116  0.89355  0.70859  1.0000
  O   O5835     1.0  0.26775  0.86490  0.68134  1.0000
  H   H1949     1.0  0.28309  0.87372  0.67774  1.0000
  H   H1950     1.0  0.27026  0.85746  0.70024  1.0000
  O   O5836     1.0  0.53310  0.10088  0.24613  1.0000
  H   H1951     1.0  0.54632  0.10321  0.23193  1.0000
  H   H1952     1.0  0.53093  0.11657  0.25505  1.0000
  O   O5837     1.0  0.59923  0.06318  0.18611  1.0000
  H   H1953     1.0  0.58852  0.07707  0.18896  1.0000
  H   H1954     1.0  0.60203  0.06260  0.16523  1.0000
  O   O5838     1.0  0.37802  0.11132  0.61197  1.0000
  H   H1955     1.0  0.39483  0.11420  0.61911  1.0000
  H   H1956     1.0  0.38021  0.10762  0.59146  1.0000
  O   O5839     1.0  0.03160  0.73984  0.58127  1.0000
  H   H1957     1.0  0.01761  0.74991  0.57557  1.0000
  H   H1958     1.0  0.02701  0.73370  0.60032  1.0000
  O   O5840     1.0  0.37134  0.03621  0.87704  1.0000
  H   H1959     1.0  0.36992  0.04794  0.89261  1.0000
  H   H1960     1.0  0.38141  0.04415  0.86232  1.0000
  O   O5841     1.0  0.36202  0.08410  0.81696  1.0000
  H   H1961     1.0  0.37350  0.07427  0.82820  1.0000
  H   H1962     1.0  0.35221  0.09257  0.83148  1.0000
  O   O5842     1.0  0.10084  0.11341  0.67976  1.0000
  H   H1963     1.0  0.11115  0.09938  0.68350  1.0000
  H   H1964     1.0  0.08895  0.10811  0.66513  1.0000
  O   O5843     1.0  0.75877  0.36114  0.71402  1.0000
  H   H1965     1.0  0.76465  0.35217  0.73082  1.0000
  H   H1966     1.0  0.74248  0.35432  0.70976  1.0000
  O   O5844     1.0  0.71957  0.72393  0.51895  1.0000
  H   H1967     1.0  0.72320  0.72454  0.53965  1.0000
  H   H1968     1.0  0.71999  0.74060  0.51271  1.0000
  O   O5845     1.0  0.22973  0.36347  0.72430  1.0000
  H   H1969     1.0  0.24528  0.36098  0.73475  1.0000
  H   H1970     1.0  0.23196  0.37874  0.71440  1.0000
  O   O5846     1.0  0.28948  0.47973  0.82569  1.0000
  H   H1971     1.0  0.28345  0.48201  0.84544  1.0000
  H   H1972     1.0  0.29572  0.46334  0.82538  1.0000
  O   O5847     1.0  0.27268  0.43487  0.54927  1.0000
  H   H1973     1.0  0.27524  0.43749  0.52858  1.0000
  H   H1974     1.0  0.25466  0.43504  0.55169  1.0000
  O   O5848     1.0  0.22667  0.38652  0.56892  1.0000
  H   H1975     1.0  0.22176  0.40331  0.56800  1.0000
  H   H1976     1.0  0.21100  0.37776  0.56969  1.0000
  O   O5849     1.0  0.17153  0.43025  0.64563  1.0000
  H   H1977     1.0  0.18367  0.42915  0.62998  1.0000
  H   H1978     1.0  0.17371  0.41548  0.65661  1.0000
  O   O5850     1.0  0.17328  0.39502  0.57593  1.0000
  H   H1979     1.0  0.18495  0.40459  0.58723  1.0000
  H   H1980     1.0  0.18100  0.37925  0.57479  1.0000
  O   O5851     1.0  0.23419  0.38426  0.65972  1.0000
  H   H1981     1.0  0.21631  0.38489  0.66318  1.0000
  H   H1982     1.0  0.24154  0.39137  0.67703  1.0000
  O   O5852     1.0  0.40672  0.40464  0.86415  1.0000
  H   H1983     1.0  0.42190  0.39630  0.86979  1.0000
  H   H1984     1.0  0.39349  0.39622  0.87441  1.0000
  O   O5853     1.0  0.34169  0.45175  0.84918  1.0000
  H   H1985     1.0  0.33270  0.45665  0.83180  1.0000
  H   H1986     1.0  0.33939  0.43445  0.85009  1.0000
  O   O5854     1.0  0.36099  0.38813  0.88745  1.0000
  H   H1987     1.0  0.36978  0.37287  0.88827  1.0000
  H   H1988     1.0  0.34953  0.38762  0.90383  1.0000
  O   O5855     1.0  0.31185  0.40226  0.88924  1.0000
  H   H1989     1.0  0.31184  0.40599  0.86858  1.0000
  H   H1990     1.0  0.32868  0.39660  0.89316  1.0000
  O   O5856     1.0  0.23093  0.48872  0.74620  1.0000
  H   H1991     1.0  0.23483  0.48184  0.72731  1.0000
  H   H1992     1.0  0.24555  0.48537  0.75803  1.0000
  O   O5857     1.0  0.33645  0.37886  0.70876  1.0000
  H   H1993     1.0  0.33833  0.36150  0.70868  1.0000
  H   H1994     1.0  0.31944  0.38157  0.70220  1.0000
  O   O5858     1.0  0.35572  0.31478  0.76745  1.0000
  H   H1995     1.0  0.33966  0.32197  0.77200  1.0000
  H   H1996     1.0  0.35815  0.31804  0.74687  1.0000
  O   O5859     1.0  0.22405  0.43694  0.72568  1.0000
  H   H1997     1.0  0.23513  0.45027  0.72127  1.0000
  H   H1998     1.0  0.23372  0.42270  0.72095  1.0000
  O   O5860     1.0  0.27190  0.40040  0.79142  1.0000
  H   H1999     1.0  0.28276  0.41025  0.80344  1.0000
  H   H2000     1.0  0.28169  0.39707  0.77408  1.0000
  O   O5861     1.0  0.27596  0.36819  0.83615  1.0000
  H   H2001     1.0  0.29357  0.36452  0.83368  1.0000
  H   H2002     1.0  0.27232  0.37982  0.82096  1.0000
  O   O5862     1.0  0.48227  0.88165  0.14679  1.0000
  H   H2003     1.0  0.46996  0.88055  0.13132  1.0000
  H   H2004     1.0  0.49483  0.86978  0.14170  1.0000
  O   O5863     1.0  0.28822  0.01742  0.14283  1.0000
  H   H2005     1.0  0.27205  0.01487  0.13376  1.0000
  H   H2006     1.0  0.29069  0.00336  0.15502  1.0000
  O   O5864     1.0  0.74951  0.62541  0.00172  1.0000
  H   H2007     1.0  0.73951  0.63817  0.99322  1.0000
  H   H2008     1.0  0.74184  0.61068  0.99473  1.0000
  O   O5865     1.0  0.79530  0.72696  0.09199  1.0000
  H   H2009     1.0  0.80148  0.71107  0.09694  1.0000
  H   H2010     1.0  0.78360  0.73083  0.10745  1.0000
  O   O5866     1.0  0.82190  0.67678  0.18283  1.0000
  H   H2011     1.0  0.81752  0.69209  0.17406  1.0000
  H   H2012     1.0  0.80660  0.67136  0.19210  1.0000
  O   O5867     1.0  0.88143  0.71772  0.27649  1.0000
  H   H2013     1.0  0.86341  0.71968  0.27720  1.0000
  H   H2014     1.0  0.88798  0.73234  0.28517  1.0000
  O   O5868     1.0  0.82236  0.64185  0.25875  1.0000
  H   H2015     1.0  0.83399  0.65004  0.27159  1.0000
  H   H2016     1.0  0.80906  0.65342  0.25556  1.0000
  O   O5869     1.0  0.73704  0.63439  0.19655  1.0000
  H   H2017     1.0  0.72120  0.64229  0.20039  1.0000
  H   H2018     1.0  0.74957  0.64591  0.20281  1.0000
  O   O5870     1.0  0.02372  0.49164  0.11002  1.0000
  H   H2019     1.0  0.02760  0.49607  0.09007  1.0000
  H   H2020     1.0  0.00858  0.50050  0.11453  1.0000
  O   O5871     1.0  0.52076  0.59229  0.35617  1.0000
  H   H2021     1.0  0.53523  0.59844  0.34583  1.0000
  H   H2022     1.0  0.50692  0.60196  0.34914  1.0000
  O   O5872     1.0  0.55003  0.53301  0.31953  1.0000
  H   H2023     1.0  0.56255  0.54304  0.32883  1.0000
  H   H2024     1.0  0.53418  0.53964  0.32596  1.0000
  O   O5873     1.0  0.59484  0.66634  0.37660  1.0000
  H   H2025     1.0  0.58633  0.66911  0.39497  1.0000
  H   H2026     1.0  0.58183  0.66782  0.36198  1.0000
  O   O5874     1.0  0.50097  0.63375  0.40167  1.0000
  H   H2027     1.0  0.48919  0.64695  0.40329  1.0000
  H   H2028     1.0  0.49777  0.62390  0.41872  1.0000
  O   O5875     1.0  0.53323  0.55530  0.45877  1.0000
  H   H2029     1.0  0.54179  0.55728  0.44028  1.0000
  H   H2030     1.0  0.51562  0.55657  0.45395  1.0000
  O   O5876     1.0  0.48220  0.55765  0.45559  1.0000
  H   H2031     1.0  0.49134  0.57186  0.44947  1.0000
  H   H2032     1.0  0.46479  0.56255  0.45531  1.0000
  O   O5877     1.0  0.55978  0.62899  0.42500  1.0000
  H   H2033     1.0  0.55870  0.64537  0.41781  1.0000
  H   H2034     1.0  0.56713  0.62000  0.40903  1.0000
  O   O5878     1.0  0.18959  0.75206  0.18087  1.0000
  H   H2035     1.0  0.17164  0.75197  0.17779  1.0000
  H   H2036     1.0  0.19242  0.76523  0.19435  1.0000
  O   O5879     1.0  0.14621  0.12256  0.16328  1.0000
  H   H2037     1.0  0.15906  0.11098  0.16839  1.0000
  H   H2038     1.0  0.13062  0.11387  0.16572  1.0000
  O   O5880     1.0  0.73827  0.98989  0.58373  1.0000
  H   H2039     1.0  0.73832  0.98193  0.60255  1.0000
  H   H2040     1.0  0.75110  0.98164  0.57261  1.0000
  O   O5881     1.0  0.76346  0.95567  0.64651  1.0000
  H   H2041     1.0  0.76470  0.94310  0.66111  1.0000
  H   H2042     1.0  0.74682  0.96227  0.64909  1.0000
  O   O5882     1.0  0.76054  0.82605  0.66972  1.0000
  H   H2043     1.0  0.77694  0.82886  0.67809  1.0000
  H   H2044     1.0  0.76081  0.83469  0.65135  1.0000
  O   O5883     1.0  0.81192  0.84462  0.67491  1.0000
  H   H2045     1.0  0.81302  0.84662  0.69588  1.0000
  H   H2046     1.0  0.81879  0.82874  0.67129  1.0000
  O   O5884     1.0  0.77455  0.85473  0.62024  1.0000
  H   H2047     1.0  0.79207  0.85888  0.62245  1.0000
  H   H2048     1.0  0.77126  0.85667  0.59958  1.0000
  O   O5885     1.0  0.75104  0.90010  0.57167  1.0000
  H   H2049     1.0  0.76306  0.88703  0.57136  1.0000
  H   H2050     1.0  0.74811  0.90378  0.55128  1.0000
  O   O5886     1.0  0.86807  0.89138  0.67354  1.0000
  H   H2051     1.0  0.85475  0.89761  0.68575  1.0000
  H   H2052     1.0  0.86054  0.88978  0.65440  1.0000
  O   O5887     1.0  0.81545  0.82028  0.60629  1.0000
  H   H2053     1.0  0.83271  0.81529  0.60874  1.0000
  H   H2054     1.0  0.81647  0.83726  0.60153  1.0000
  O   O5888     1.0  0.88052  0.95000  0.60809  1.0000
  H   H2055     1.0  0.89571  0.94157  0.60270  1.0000
  H   H2056     1.0  0.88014  0.94924  0.62921  1.0000
  O   O5889     1.0  0.85354  0.91286  0.58807  1.0000
  H   H2057     1.0  0.84489  0.90570  0.60451  1.0000
  H   H2058     1.0  0.86295  0.92609  0.59643  1.0000
  O   O5890     1.0  0.44058  0.68511  0.57105  1.0000
  H   H2059     1.0  0.45680  0.68492  0.56157  1.0000
  H   H2060     1.0  0.43743  0.66843  0.57606  1.0000
  O   O5891     1.0  0.01432  0.50198  0.77438  1.0000
  H   H2061     1.0  0.02482  0.49518  0.75923  1.0000
  H   H2062     1.0  0.01507  0.51921  0.77114  1.0000
  O   O5892     1.0  0.10233  0.44964  0.90836  1.0000
  H   H2063     1.0  0.11341  0.46272  0.90296  1.0000
  H   H2064     1.0  0.09312  0.45571  0.92503  1.0000
  O   O5893     1.0  0.13576  0.45522  0.86547  1.0000
  H   H2065     1.0  0.11961  0.45423  0.87503  1.0000
  H   H2066     1.0  0.14779  0.45251  0.88095  1.0000
  O   O5894     1.0  0.86236  0.37148  0.87361  1.0000
  H   H2067     1.0  0.87035  0.35685  0.88042  1.0000
  H   H2068     1.0  0.86638  0.38340  0.88832  1.0000
  O   O5895     1.0  0.14893  0.34056  0.90886  1.0000
  H   H2069     1.0  0.16507  0.34688  0.91472  1.0000
  H   H2070     1.0  0.13689  0.35155  0.91740  1.0000
  O   O5896     1.0  0.21712  0.41139  0.95174  1.0000
  H   H2071     1.0  0.20401  0.40008  0.94666  1.0000
  H   H2072     1.0  0.23211  0.40162  0.95315  1.0000
  O   O5897     1.0  0.10789  0.45789  0.13198  1.0000
  H   H2073     1.0  0.11507  0.46564  0.11498  1.0000
  H   H2074     1.0  0.10963  0.44081  0.12814  1.0000
  O   O5898     1.0  0.12509  0.44363  0.07898  1.0000
  H   H2075     1.0  0.12015  0.44647  0.09903  1.0000
  H   H2076     1.0  0.13424  0.42857  0.07958  1.0000
  O   O5899     1.0  0.07683  0.49391  0.89040  1.0000
  H   H2077     1.0  0.08069  0.48637  0.87187  1.0000
  H   H2078     1.0  0.09279  0.49489  0.90038  1.0000
  O   O5900     1.0  0.15844  0.46575  0.00524  1.0000
  H   H2079     1.0  0.14724  0.47141  0.99009  1.0000
  H   H2080     1.0  0.15203  0.44999  0.01044  1.0000
  O   O5901     1.0  0.16659  0.39175  0.98718  1.0000
  H   H2081     1.0  0.15443  0.40363  0.99343  1.0000
  H   H2082     1.0  0.17659  0.38862  0.00441  1.0000
  O   O5902     1.0  0.19138  0.33071  0.96278  1.0000
  H   H2083     1.0  0.19207  0.33550  0.98310  1.0000
  H   H2084     1.0  0.18977  0.31333  0.96335  1.0000
  O   O5903     1.0  0.18401  0.37307  0.93701  1.0000
  H   H2085     1.0  0.18766  0.35679  0.94333  1.0000
  H   H2086     1.0  0.17755  0.38099  0.95428  1.0000
  O   O5904     1.0  0.18402  0.39088  0.10872  1.0000
  H   H2087     1.0  0.17935  0.39760  0.08998  1.0000
  H   H2088     1.0  0.16830  0.38597  0.11743  1.0000
  O   O5905     1.0  0.86793  0.38410  0.80951  1.0000
  H   H2089     1.0  0.88385  0.38561  0.81947  1.0000
  H   H2090     1.0  0.86685  0.36720  0.80436  1.0000
  O   O5906     1.0  0.89390  0.35677  0.77234  1.0000
  H   H2091     1.0  0.88479  0.36637  0.78645  1.0000
  H   H2092     1.0  0.88803  0.36247  0.75356  1.0000
  O   O5907     1.0  0.11013  0.41388  0.69293  1.0000
  H   H2093     1.0  0.11965  0.42818  0.68803  1.0000
  H   H2094     1.0  0.09949  0.41117  0.67612  1.0000
  O   O5908     1.0  0.15806  0.48259  0.65232  1.0000
  H   H2095     1.0  0.15307  0.49716  0.64224  1.0000
  H   H2096     1.0  0.14339  0.47235  0.65158  1.0000
  O   O5909     1.0  0.01945  0.45904  0.89528  1.0000
  H   H2097     1.0  0.02158  0.46609  0.87610  1.0000
  H   H2098     1.0  0.02963  0.44460  0.89487  1.0000
  O   O5910     1.0  0.05691  0.41446  0.86312  1.0000
  H   H2099     1.0  0.06140  0.39911  0.87173  1.0000
  H   H2100     1.0  0.04843  0.42307  0.87863  1.0000
  O   O5911     1.0  0.10060  0.38319  0.88831  1.0000
  H   H2101     1.0  0.08343  0.38355  0.89513  1.0000
  H   H2102     1.0  0.11052  0.38174  0.90593  1.0000
  O   O5912     1.0  0.12791  0.50076  0.70013  1.0000
  H   H2103     1.0  0.11070  0.50320  0.69412  1.0000
  H   H2104     1.0  0.13624  0.49477  0.68280  1.0000
  O   O5913     1.0  0.93897  0.44949  0.80404  1.0000
  H   H2105     1.0  0.94747  0.46096  0.81653  1.0000
  H   H2106     1.0  0.95225  0.44205  0.79280  1.0000
  O   O5914     1.0  0.98242  0.38823  0.81073  1.0000
  H   H2107     1.0  0.99339  0.39311  0.79496  1.0000
  H   H2108     1.0  0.96569  0.39048  0.80304  1.0000
  O   O5915     1.0  0.03659  0.43767  0.78875  1.0000
  H   H2109     1.0  0.02623  0.44300  0.80486  1.0000
  H   H2110     1.0  0.02625  0.44002  0.77161  1.0000
  O   O5916     1.0  0.06730  0.43161  0.74138  1.0000
  H   H2111     1.0  0.07034  0.44705  0.73218  1.0000
  H   H2112     1.0  0.05643  0.43528  0.75772  1.0000
  O   O5917     1.0  0.90182  0.47897  0.82554  1.0000
  H   H2113     1.0  0.89329  0.49302  0.83318  1.0000
  H   H2114     1.0  0.90752  0.47038  0.84271  1.0000
  O   O5918     1.0  0.86732  0.44417  0.81316  1.0000
  H   H2115     1.0  0.85012  0.44683  0.80726  1.0000
  H   H2116     1.0  0.87414  0.46020  0.81573  1.0000
  O   O5919     1.0  0.90027  0.43377  0.76832  1.0000
  H   H2117     1.0  0.91575  0.43851  0.77774  1.0000
  H   H2118     1.0  0.88743  0.43687  0.78278  1.0000
  O   O5920     1.0  0.94517  0.40068  0.88793  1.0000
  H   H2119     1.0  0.96192  0.39668  0.89444  1.0000
  H   H2120     1.0  0.94726  0.41523  0.87651  1.0000
  O   O5921     1.0  0.91939  0.42227  0.93167  1.0000
  H   H2121     1.0  0.93092  0.41702  0.91663  1.0000
  H   H2122     1.0  0.90588  0.41063  0.93101  1.0000
  O   O5922     1.0  0.99512  0.40585  0.89345  1.0000
  H   H2123     1.0  0.98733  0.41880  0.88256  1.0000
  H   H2124     1.0  0.00984  0.41312  0.90212  1.0000
  O   O5923     1.0  0.78922  0.09323  0.47500  1.0000
  H   H2125     1.0  0.77898  0.08082  0.46612  1.0000
  H   H2126     1.0  0.80377  0.09439  0.46245  1.0000
  O   O5924     1.0  0.14090  0.40915  0.18687  1.0000
  H   H2127     1.0  0.13367  0.40371  0.16863  1.0000
  H   H2128     1.0  0.12732  0.41740  0.19671  1.0000
  O   O5925     1.0  0.93405  0.41625  0.51554  1.0000
  H   H2129     1.0  0.94657  0.42202  0.50194  1.0000
  H   H2130     1.0  0.93874  0.42334  0.53407  1.0000
  O   O5926     1.0  0.01486  0.39217  0.54113  1.0000
  H   H2131     1.0  0.02636  0.40562  0.53979  1.0000
  H   H2132     1.0  0.99971  0.39904  0.54924  1.0000
  O   O5927     1.0  0.02998  0.43810  0.54664  1.0000
  H   H2133     1.0  0.01314  0.43320  0.55180  1.0000
  H   H2134     1.0  0.02821  0.44578  0.52776  1.0000
  O   O5928     1.0  0.17171  0.48646  0.35194  1.0000
  H   H2135     1.0  0.17285  0.49464  0.33331  1.0000
  H   H2136     1.0  0.18036  0.47132  0.34892  1.0000
  O   O5929     1.0  0.15304  0.43273  0.33757  1.0000
  H   H2137     1.0  0.16754  0.43897  0.32736  1.0000
  H   H2138     1.0  0.15575  0.43717  0.35777  1.0000
  O   O5930     1.0  0.24838  0.42573  0.35733  1.0000
  H   H2139     1.0  0.23295  0.42585  0.36845  1.0000
  H   H2140     1.0  0.24305  0.42393  0.33724  1.0000
  O   O5931     1.0  0.13460  0.41296  0.44855  1.0000
  H   H2141     1.0  0.11948  0.42241  0.44623  1.0000
  H   H2142     1.0  0.14626  0.42376  0.45810  1.0000
  O   O5932     1.0  0.12340  0.46248  0.49088  1.0000
  H   H2143     1.0  0.13378  0.46321  0.47356  1.0000
  H   H2144     1.0  0.12810  0.44751  0.50026  1.0000
  O   O5933     1.0  0.13350  0.42200  0.52036  1.0000
  H   H2145     1.0  0.13555  0.40886  0.53407  1.0000
  H   H2146     1.0  0.11603  0.42648  0.52202  1.0000
  O   O5934     1.0  0.05373  0.42167  0.14475  1.0000
  H   H2147     1.0  0.04963  0.43099  0.16198  1.0000
  H   H2148     1.0  0.07084  0.41650  0.14788  1.0000
  O   O5935     1.0  0.05426  0.44770  0.09600  1.0000
  H   H2149     1.0  0.04455  0.46214  0.09962  1.0000
  H   H2150     1.0  0.05355  0.43885  0.11421  1.0000
  O   O5936     1.0  0.96027  0.37877  0.36677  1.0000
  H   H2151     1.0  0.97259  0.38608  0.37951  1.0000
  H   H2152     1.0  0.96557  0.38321  0.34727  1.0000
  O   O5937     1.0  0.97036  0.43231  0.47283  1.0000
  H   H2153     1.0  0.96801  0.43293  0.45188  1.0000
  H   H2154     1.0  0.97996  0.41775  0.47608  1.0000
  O   O5938     1.0  0.09094  0.44283  0.44298  1.0000
  H   H2155     1.0  0.08981  0.43270  0.42581  1.0000
  H   H2156     1.0  0.08641  0.43232  0.45901  1.0000
  O   O5939     1.0  0.08524  0.42459  0.29398  1.0000
  H   H2157     1.0  0.07200  0.43568  0.29932  1.0000
  H   H2158     1.0  0.09650  0.43407  0.28202  1.0000
  O   O5940     1.0  0.09176  0.43718  0.34899  1.0000
  H   H2159     1.0  0.09056  0.43696  0.32789  1.0000
  H   H2160     1.0  0.08749  0.42093  0.35489  1.0000
  O   O5941     1.0  0.03717  0.43042  0.34551  1.0000
  H   H2161     1.0  0.04586  0.43514  0.36317  1.0000
  H   H2162     1.0  0.02322  0.42076  0.35228  1.0000
  O   O5942     1.0  0.05211  0.46395  0.30282  1.0000
  H   H2163     1.0  0.04491  0.45805  0.28478  1.0000
  H   H2164     1.0  0.04692  0.45235  0.31742  1.0000
  O   O5943     1.0  0.14356  0.47323  0.18862  1.0000
  H   H2165     1.0  0.15740  0.46817  0.20083  1.0000
  H   H2166     1.0  0.12880  0.47028  0.20038  1.0000
  O   O5944     1.0  0.04225  0.44912  0.19603  1.0000
  H   H2167     1.0  0.03893  0.44909  0.21682  1.0000
  H   H2168     1.0  0.05224  0.46345  0.19284  1.0000
  O   O5945     1.0  0.87772  0.19071  0.48497  1.0000
  H   H2169     1.0  0.89032  0.20269  0.48039  1.0000
  H   H2170     1.0  0.88374  0.18307  0.50264  1.0000
  O   O5946     1.0  0.91583  0.22114  0.54005  1.0000
  H   H2171     1.0  0.91760  0.22430  0.51936  1.0000
  H   H2172     1.0  0.91025  0.20455  0.54111  1.0000
  O   O5947     1.0  0.93715  0.19991  0.33146  1.0000
  H   H2173     1.0  0.93474  0.20010  0.35242  1.0000
  H   H2174     1.0  0.92111  0.19488  0.32368  1.0000
  O   O5948     1.0  0.91987  0.19726  0.38804  1.0000
  H   H2175     1.0  0.90440  0.19846  0.37710  1.0000
  H   H2176     1.0  0.91907  0.18158  0.39730  1.0000
  O   O5949     1.0  0.84913  0.10100  0.51985  1.0000
  H   H2177     1.0  0.86451  0.09447  0.51189  1.0000
  H   H2178     1.0  0.84358  0.11258  0.50542  1.0000
  O   O5950     1.0  0.82494  0.13435  0.48903  1.0000
  H   H2179     1.0  0.83061  0.14753  0.50122  1.0000
  H   H2180     1.0  0.83111  0.13827  0.46972  1.0000
  O   O5951     1.0  0.78718  0.14711  0.44924  1.0000
  H   H2181     1.0  0.78382  0.16322  0.44209  1.0000
  H   H2182     1.0  0.80122  0.14906  0.46242  1.0000
  O   O5952     1.0  0.86086  0.21368  0.54032  1.0000
  H   H2183     1.0  0.86713  0.21609  0.55995  1.0000
  H   H2184     1.0  0.85507  0.19714  0.54010  1.0000
  O   O5953     1.0  0.92893  0.20593  0.59761  1.0000
  H   H2185     1.0  0.92279  0.21233  0.61594  1.0000
  H   H2186     1.0  0.92048  0.21538  0.58281  1.0000
  O   O5954     1.0  0.88161  0.23244  0.59174  1.0000
  H   H2187     1.0  0.89952  0.22969  0.59194  1.0000
  H   H2188     1.0  0.87439  0.21687  0.59627  1.0000
  O   O5955     1.0  0.76612  0.13333  0.50312  1.0000
  H   H2189     1.0  0.77182  0.11698  0.49981  1.0000
  H   H2190     1.0  0.77166  0.14214  0.48605  1.0000
  O   O5956     1.0  0.13007  0.28066  0.56170  1.0000
  H   H2191     1.0  0.12197  0.29531  0.56826  1.0000
  H   H2192     1.0  0.11952  0.26781  0.56902  1.0000
  O   O5957     1.0  0.13768  0.34114  0.59401  1.0000
  H   H2193     1.0  0.12732  0.32707  0.59076  1.0000
  H   H2194     1.0  0.12594  0.35378  0.59904  1.0000
  O   O5958     1.0  0.09606  0.30752  0.58792  1.0000
  H   H2195     1.0  0.10767  0.30327  0.60333  1.0000
  H   H2196     1.0  0.09946  0.32435  0.58397  1.0000
  O   O5959     1.0  0.92942  0.12411  0.82813  1.0000
  H   H2197     1.0  0.92389  0.13772  0.81657  1.0000
  H   H2198     1.0  0.94629  0.12094  0.82137  1.0000
  O   O5960     1.0  0.98229  0.18425  0.82752  1.0000
  H   H2199     1.0  0.97452  0.18210  0.84645  1.0000
  H   H2200     1.0  0.99101  0.16923  0.82396  1.0000
  O   O5961     1.0  0.96006  0.17337  0.88645  1.0000
  H   H2201     1.0  0.95117  0.16366  0.90064  1.0000
  H   H2202     1.0  0.94706  0.18234  0.87648  1.0000
  O   O5962     1.0  0.91443  0.20067  0.78680  1.0000
  H   H2203     1.0  0.92948  0.19132  0.78344  1.0000
  H   H2204     1.0  0.90191  0.18886  0.79221  1.0000
  O   O5963     1.0  0.85232  0.22474  0.83851  1.0000
  H   H2205     1.0  0.86204  0.23853  0.83221  1.0000
  H   H2206     1.0  0.85896  0.21138  0.82731  1.0000
  O   O5964     1.0  0.82043  0.23425  0.76144  1.0000
  H   H2207     1.0  0.83668  0.22813  0.76722  1.0000
  H   H2208     1.0  0.82052  0.23336  0.74032  1.0000
  O   O5965     1.0  0.82699  0.28313  0.73528  1.0000
  H   H2209     1.0  0.84030  0.27159  0.73859  1.0000
  H   H2210     1.0  0.83454  0.29862  0.73945  1.0000
  O   O5966     1.0  0.91551  0.25958  0.63157  1.0000
  H   H2211     1.0  0.91828  0.27284  0.64493  1.0000
  H   H2212     1.0  0.91795  0.24527  0.64334  1.0000
  O   O5967     1.0  0.89329  0.26866  0.69655  1.0000
  H   H2213     1.0  0.88821  0.27017  0.71677  1.0000
  H   H2214     1.0  0.90382  0.28258  0.69308  1.0000
  O   O5968     1.0  0.86075  0.23896  0.65666  1.0000
  H   H2215     1.0  0.84552  0.22981  0.65368  1.0000
  H   H2216     1.0  0.87221  0.22765  0.66566  1.0000
  O   O5969     1.0  0.72571  0.23864  0.62818  1.0000
  H   H2217     1.0  0.73634  0.22640  0.61960  1.0000
  H   H2218     1.0  0.71412  0.24292  0.61276  1.0000
  O   O5970     1.0  0.81182  0.21837  0.59019  1.0000
  H   H2219     1.0  0.79507  0.21805  0.58208  1.0000
  H   H2220     1.0  0.80972  0.21313  0.61021  1.0000
  O   O5971     1.0  0.76229  0.23199  0.67922  1.0000
  H   H2221     1.0  0.77445  0.22881  0.66401  1.0000
  H   H2222     1.0  0.76903  0.24570  0.68970  1.0000
  O   O5972     1.0  0.07713  0.00676  0.59374  1.0000
  H   H2223     1.0  0.09432  0.00350  0.59922  1.0000
  H   H2224     1.0  0.07799  0.02155  0.58255  1.0000
  O   O5973     1.0  0.84908  0.30083  0.85221  1.0000
  H   H2225     1.0  0.84336  0.29653  0.83283  1.0000
  H   H2226     1.0  0.85982  0.31468  0.84919  1.0000
  O   O5974     1.0  0.94509  0.24733  0.81568  1.0000
  H   H2227     1.0  0.93741  0.26313  0.81509  1.0000
  H   H2228     1.0  0.95033  0.24435  0.79576  1.0000
  O   O5975     1.0  0.88339  0.26486  0.81717  1.0000
  H   H2229     1.0  0.87661  0.27818  0.80602  1.0000
  H   H2230     1.0  0.90101  0.26862  0.81927  1.0000
  O   O5976     1.0  0.04443  0.15353  0.77514  1.0000
  H   H2231     1.0  0.05638  0.16352  0.76482  1.0000
  H   H2232     1.0  0.04242  0.13946  0.76285  1.0000
  O   O5977     1.0  0.05287  0.15472  0.67386  1.0000
  H   H2233     1.0  0.06451  0.16709  0.66764  1.0000
  H   H2234     1.0  0.05665  0.15226  0.69432  1.0000
  O   O5978     1.0  0.95185  0.08739  0.64225  1.0000
  H   H2235     1.0  0.96012  0.10053  0.63220  1.0000
  H   H2236     1.0  0.94748  0.07613  0.62692  1.0000
  O   O5979     1.0  0.96758  0.23919  0.64045  1.0000
  H   H2237     1.0  0.97858  0.24807  0.65337  1.0000
  H   H2238     1.0  0.97253  0.22252  0.64287  1.0000
  O   O5980     1.0  0.00376  0.17038  0.73387  1.0000
  H   H2239     1.0  0.00294  0.18408  0.72081  1.0000
  H   H2240     1.0  0.98735  0.16973  0.74285  1.0000
  O   O5981     1.0  0.15408  0.21732  0.64818  1.0000
  H   H2241     1.0  0.14402  0.20649  0.65991  1.0000
  H   H2242     1.0  0.14211  0.22554  0.63580  1.0000
  O   O5982     1.0  0.10440  0.21009  0.62747  1.0000
  H   H2243     1.0  0.11856  0.20580  0.63962  1.0000
  H   H2244     1.0  0.10995  0.22414  0.61673  1.0000
  O   O5983     1.0  0.06801  0.23163  0.65905  1.0000
  H   H2245     1.0  0.08037  0.22272  0.64796  1.0000
  H   H2246     1.0  0.05594  0.21959  0.66507  1.0000
  O   O5984     1.0  0.03031  0.20415  0.68019  1.0000
  H   H2247     1.0  0.02698  0.22102  0.68398  1.0000
  H   H2248     1.0  0.01549  0.19845  0.67014  1.0000
  O   O5985     1.0  0.99255  0.14974  0.68247  1.0000
  H   H2249     1.0  0.00109  0.15519  0.66503  1.0000
  H   H2250     1.0  0.99947  0.15954  0.69800  1.0000
  O   O5986     1.0  0.98671  0.19489  0.65314  1.0000
  H   H2251     1.0  0.98598  0.19663  0.67416  1.0000
  H   H2252     1.0  0.99696  0.18072  0.65002  1.0000
  O   O5987     1.0  0.96076  0.23840  0.75621  1.0000
  H   H2253     1.0  0.97705  0.24576  0.75358  1.0000
  H   H2254     1.0  0.95653  0.23205  0.73714  1.0000
  O   O5988     1.0  0.00650  0.26180  0.76096  1.0000
  H   H2255     1.0  0.00563  0.24512  0.76710  1.0000
  H   H2256     1.0  0.01532  0.26989  0.77662  1.0000
  O   O5989     1.0  0.07221  0.23846  0.46339  1.0000
  H   H2257     1.0  0.05803  0.22763  0.46205  1.0000
  H   H2258     1.0  0.06858  0.25110  0.44943  1.0000
  O   O5990     1.0  0.05205  0.05098  0.64352  1.0000
  H   H2259     1.0  0.03732  0.05427  0.65520  1.0000
  H   H2260     1.0  0.05011  0.06108  0.62643  1.0000
  O   O5991     1.0  0.98226  0.09327  0.54877  1.0000
  H   H2261     1.0  0.99073  0.08878  0.53088  1.0000
  H   H2262     1.0  0.97459  0.10868  0.54443  1.0000
  O   O5992     1.0  0.00680  0.06959  0.66307  1.0000
  H   H2263     1.0  0.99045  0.07614  0.66766  1.0000
  H   H2264     1.0  0.00651  0.06725  0.64212  1.0000
  O   O5993     1.0  0.98642  0.06984  0.60100  1.0000
  H   H2265     1.0  0.00405  0.07279  0.60446  1.0000
  H   H2266     1.0  0.98300  0.07764  0.58251  1.0000
  O   O5994     1.0  0.99926  0.27177  0.59028  1.0000
  H   H2267     1.0  0.00980  0.26529  0.60560  1.0000
  H   H2268     1.0  0.00789  0.28617  0.58382  1.0000
  O   O5995     1.0  0.02931  0.26122  0.49496  1.0000
  H   H2269     1.0  0.04515  0.25641  0.48646  1.0000
  H   H2270     1.0  0.01741  0.24944  0.48781  1.0000
  O   O5996     1.0  0.02130  0.30836  0.50396  1.0000
  H   H2271     1.0  0.02423  0.29147  0.49989  1.0000
  H   H2272     1.0  0.01969  0.30917  0.52500  1.0000
  O   O5997     1.0  0.12668  0.11386  0.57407  1.0000
  H   H2273     1.0  0.12090  0.13001  0.56970  1.0000
  H   H2274     1.0  0.11416  0.10339  0.56551  1.0000
  O   O5998     1.0  0.04116  0.11256  0.54222  1.0000
  H   H2275     1.0  0.04742  0.12693  0.55176  1.0000
  H   H2276     1.0  0.05099  0.11128  0.52452  1.0000
  O   O5999     1.0  0.01899  0.02804  0.59060  1.0000
  H   H2277     1.0  0.03234  0.03712  0.58144  1.0000
  H   H2278     1.0  0.02253  0.01141  0.58567  1.0000
  O   O6000     1.0  0.12254  0.10281  0.50961  1.0000
  H   H2279     1.0  0.12135  0.09194  0.49312  1.0000
  H   H2280     1.0  0.11057  0.09659  0.52360  1.0000
  O   O6001     1.0  0.07272  0.11426  0.49334  1.0000
  H   H2281     1.0  0.09034  0.11201  0.49756  1.0000
  H   H2282     1.0  0.07215  0.12850  0.48113  1.0000
  O   O6002     1.0  0.10983  0.23847  0.50916  1.0000
  H   H2283     1.0  0.10905  0.22243  0.51746  1.0000
  H   H2284     1.0  0.09727  0.23842  0.49390  1.0000
  O   O6003     1.0  0.06021  0.15442  0.45748  1.0000
  H   H2285     1.0  0.06742  0.16016  0.47559  1.0000
  H   H2286     1.0  0.07446  0.15188  0.44476  1.0000
  O   O6004     1.0  0.03987  0.20748  0.49832  1.0000
  H   H2287     1.0  0.02476  0.20756  0.48663  1.0000
  H   H2288     1.0  0.04556  0.19091  0.49775  1.0000
  O   O6005     1.0  0.74684  0.33126  0.43440  1.0000
  H   H2289     1.0  0.75265  0.34694  0.44078  1.0000
  H   H2290     1.0  0.74546  0.32192  0.45219  1.0000
  O   O6006     1.0  0.74785  0.49971  0.53313  1.0000
  H   H2291     1.0  0.76071  0.51119  0.53852  1.0000
  H   H2292     1.0  0.75463  0.48421  0.53881  1.0000
  O   O6007     1.0  0.73768  0.37495  0.53398  1.0000
  H   H2293     1.0  0.73429  0.35917  0.54211  1.0000
  H   H2294     1.0  0.75472  0.37846  0.53985  1.0000
  O   O6008     1.0  0.82697  0.34255  0.51971  1.0000
  H   H2295     1.0  0.82034  0.35863  0.51686  1.0000
  H   H2296     1.0  0.82359  0.33430  0.50150  1.0000
  O   O6009     1.0  0.78445  0.38076  0.55246  1.0000
  H   H2297     1.0  0.79365  0.39381  0.54339  1.0000
  H   H2298     1.0  0.79437  0.36653  0.54844  1.0000
  O   O6010     1.0  0.74902  0.32052  0.49405  1.0000
  H   H2299     1.0  0.73209  0.32629  0.49107  1.0000
  H   H2300     1.0  0.75955  0.33410  0.48897  1.0000
  O   O6011     1.0  0.77785  0.96774  0.46157  1.0000
  H   H2301     1.0  0.79243  0.95764  0.46449  1.0000
  H   H2302     1.0  0.78464  0.98337  0.45645  1.0000
  O   O6012     1.0  0.75478  0.97542  0.33516  1.0000
  H   H2303     1.0  0.74189  0.98150  0.32223  1.0000
  H   H2304     1.0  0.74893  0.97949  0.35456  1.0000
  O   O6013     1.0  0.66846  0.99126  0.36434  1.0000
  H   H2305     1.0  0.67349  0.00803  0.36438  1.0000
  H   H2306     1.0  0.68055  0.98333  0.37684  1.0000
  O   O6014     1.0  0.73725  0.02888  0.49162  1.0000
  H   H2307     1.0  0.72968  0.01694  0.47897  1.0000
  H   H2308     1.0  0.75448  0.02986  0.48512  1.0000
  O   O6015     1.0  0.73107  0.95774  0.48714  1.0000
  H   H2309     1.0  0.72401  0.97056  0.47538  1.0000
  H   H2310     1.0  0.74864  0.95748  0.48191  1.0000
  O   O6016     1.0  0.72742  0.99386  0.44891  1.0000
  H   H2311     1.0  0.71231  0.98648  0.44137  1.0000
  H   H2312     1.0  0.73888  0.99390  0.43252  1.0000
  O   O6017     1.0  0.63144  0.52455  0.84931  1.0000
  H   H2313     1.0  0.62867  0.54176  0.85068  1.0000
  H   H2314     1.0  0.61482  0.51774  0.84739  1.0000
  O   O6018     1.0  0.70889  0.80847  0.12315  1.0000
  H   H2315     1.0  0.69389  0.80005  0.11703  1.0000
  H   H2316     1.0  0.70278  0.82227  0.13396  1.0000
  O   O6019     1.0  0.62518  0.85821  0.21088  1.0000
  H   H2317     1.0  0.61119  0.86153  0.19803  1.0000
  H   H2318     1.0  0.63926  0.85583  0.19787  1.0000
  O   O6020     1.0  0.66525  0.77799  0.10074  1.0000
  H   H2319     1.0  0.64834  0.78416  0.09904  1.0000
  H   H2320     1.0  0.67467  0.78678  0.08614  1.0000
  O   O6021     1.0  0.62709  0.80538  0.07975  1.0000
  H   H2321     1.0  0.62431  0.80916  0.10014  1.0000
  H   H2322     1.0  0.63838  0.81784  0.07296  1.0000
  O   O6022     1.0  0.21887  0.24225  0.65885  1.0000
  H   H2323     1.0  0.23448  0.24970  0.65299  1.0000
  H   H2324     1.0  0.21723  0.22837  0.64616  1.0000
  O   O6023     1.0  0.26359  0.26279  0.64121  1.0000
  H   H2325     1.0  0.27080  0.27497  0.62861  1.0000
  H   H2326     1.0  0.27579  0.26072  0.65665  1.0000
  O   O6024     1.0  0.28069  0.29938  0.59883  1.0000
  H   H2327     1.0  0.26356  0.29985  0.60576  1.0000
  H   H2328     1.0  0.28179  0.31258  0.58505  1.0000
  O   O6025     1.0  0.94837  0.66356  0.44072  1.0000
  H   H2329     1.0  0.96323  0.67274  0.43589  1.0000
  H   H2330     1.0  0.94410  0.66868  0.46031  1.0000
  O   O6026     1.0  0.60074  0.12045  0.05211  1.0000
  H   H2331     1.0  0.60214  0.11684  0.07273  1.0000
  H   H2332     1.0  0.58907  0.10857  0.04470  1.0000
  O   O6027     1.0  0.46894  0.64798  0.84506  1.0000
  H   H2333     1.0  0.46412  0.66093  0.83204  1.0000
  H   H2334     1.0  0.48193  0.63939  0.83460  1.0000
  O   O6028     1.0  0.58761  0.68067  0.90269  1.0000
  H   H2335     1.0  0.59368  0.67505  0.92142  1.0000
  H   H2336     1.0  0.57819  0.66720  0.89492  1.0000
  O   O6029     1.0  0.53706  0.67248  0.86624  1.0000
  H   H2337     1.0  0.54916  0.66347  0.87761  1.0000
  H   H2338     1.0  0.52606  0.66032  0.85813  1.0000
  O   O6030     1.0  0.50796  0.67364  0.75780  1.0000
  H   H2339     1.0  0.50491  0.68460  0.74173  1.0000
  H   H2340     1.0  0.49356  0.67558  0.77044  1.0000
  O   O6031     1.0  0.39049  0.71629  0.75393  1.0000
  H   H2341     1.0  0.38586  0.70079  0.74583  1.0000
  H   H2342     1.0  0.39764  0.71251  0.77282  1.0000
  O   O6032     1.0  0.49848  0.69669  0.83495  1.0000
  H   H2343     1.0  0.51357  0.68846  0.84115  1.0000
  H   H2344     1.0  0.48835  0.69776  0.85244  1.0000
  O   O6033     1.0  0.46819  0.67724  0.79584  1.0000
  H   H2345     1.0  0.45518  0.68940  0.79545  1.0000
  H   H2346     1.0  0.48022  0.68318  0.80994  1.0000
  O   O6034     1.0  0.60103  0.60515  0.94991  1.0000
  H   H2347     1.0  0.60056  0.62243  0.95288  1.0000
  H   H2348     1.0  0.59652  0.60300  0.92960  1.0000
  O   O6035     1.0  0.59874  0.65282  0.95384  1.0000
  H   H2349     1.0  0.61233  0.66381  0.95816  1.0000
  H   H2350     1.0  0.59699  0.64318  0.97135  1.0000
  O   O6036     1.0  0.61895  0.75271  0.02281  1.0000
  H   H2351     1.0  0.61316  0.76776  0.01448  1.0000
  H   H2352     1.0  0.62512  0.74359  0.00627  1.0000
  O   O6037     1.0  0.91458  0.59818  0.99616  1.0000
  H   H2353     1.0  0.89853  0.60370  0.00340  1.0000
  H   H2354     1.0  0.91498  0.60345  0.97601  1.0000
  O   O6038     1.0  0.46402  0.21181  0.89667  1.0000
  H   H2355     1.0  0.46361  0.19438  0.89760  1.0000
  H   H2356     1.0  0.47040  0.21535  0.87735  1.0000
  O   O6039     1.0  0.72967  0.25572  0.86952  1.0000
  H   H2357     1.0  0.73678  0.24022  0.87459  1.0000
  H   H2358     1.0  0.74403  0.26580  0.86529  1.0000
  O   O6040     1.0  0.16263  0.72120  0.06895  1.0000
  H   H2359     1.0  0.16133  0.72308  0.08992  1.0000
  H   H2360     1.0  0.16325  0.73753  0.06151  1.0000
  O   O6041     1.0  0.89885  0.02304  0.96496  1.0000
  H   H2361     1.0  0.90547  0.01178  0.97915  1.0000
  H   H2362     1.0  0.90198  0.01547  0.94626  1.0000
  O   O6042     1.0  0.13334  0.98556  0.27751  1.0000
  H   H2363     1.0  0.14097  0.97588  0.29269  1.0000
  H   H2364     1.0  0.12768  0.97397  0.26314  1.0000
  O   O6043     1.0  0.15478  0.96146  0.32068  1.0000
  H   H2365     1.0  0.17230  0.95753  0.32339  1.0000
  H   H2366     1.0  0.15171  0.97456  0.33418  1.0000
  O   O6044     1.0  0.03054  0.03725  0.24453  1.0000
  H   H2367     1.0  0.01735  0.04432  0.23280  1.0000
  H   H2368     1.0  0.04297  0.04988  0.24627  1.0000
  O   O6045     1.0  0.13085  0.04163  0.20703  1.0000
  H   H2369     1.0  0.12403  0.05182  0.19181  1.0000
  H   H2370     1.0  0.12661  0.02540  0.20104  1.0000
  O   O6046     1.0  0.89219  0.92436  0.16874  1.0000
  H   H2371     1.0  0.88723  0.92044  0.18852  1.0000
  H   H2372     1.0  0.90962  0.91961  0.16763  1.0000
  O   O6047     1.0  0.94678  0.01661  0.04263  1.0000
  H   H2373     1.0  0.94920  0.00766  0.02470  1.0000
  H   H2374     1.0  0.96276  0.01560  0.05256  1.0000
  O   O6048     1.0  0.92679  0.88270  0.09995  1.0000
  H   H2375     1.0  0.93267  0.89546  0.08726  1.0000
  H   H2376     1.0  0.92817  0.88933  0.11944  1.0000
  O   O6049     1.0  0.95289  0.06817  0.17757  1.0000
  H   H2377     1.0  0.96460  0.05930  0.16552  1.0000
  H   H2378     1.0  0.95764  0.06423  0.19741  1.0000
  O   O6050     1.0  0.98300  0.89819  0.07622  1.0000
  H   H2379     1.0  0.99734  0.90582  0.08529  1.0000
  H   H2380     1.0  0.96896  0.90836  0.08147  1.0000
  O   O6051     1.0  0.97686  0.95382  0.13133  1.0000
  H   H2381     1.0  0.98141  0.96284  0.14864  1.0000
  H   H2382     1.0  0.95884  0.95551  0.13000  1.0000
  O   O6052     1.0  0.05201  0.01992  0.96861  1.0000
  H   H2383     1.0  0.04927  0.00663  0.98194  1.0000
  H   H2384     1.0  0.06731  0.01579  0.95842  1.0000
  O   O6053     1.0  0.05879  0.06720  0.96954  1.0000
  H   H2385     1.0  0.05388  0.08017  0.95660  1.0000
  H   H2386     1.0  0.05219  0.05279  0.96041  1.0000
  O   O6054     1.0  0.94197  0.96526  0.05088  1.0000
  H   H2387     1.0  0.94023  0.95262  0.06532  1.0000
  H   H2388     1.0  0.95945  0.96471  0.04527  1.0000
  O   O6055     1.0  0.06627  0.02133  0.16651  1.0000
  H   H2389     1.0  0.04857  0.01837  0.16362  1.0000
  H   H2390     1.0  0.07447  0.01144  0.15194  1.0000
  O   O6056     1.0  0.08512  0.99082  0.12206  1.0000
  H   H2391     1.0  0.06986  0.99982  0.11862  1.0000
  H   H2392     1.0  0.08043  0.97415  0.11897  1.0000
  O   O6057     1.0  0.10914  0.99206  0.07183  1.0000
  H   H2393     1.0  0.12671  0.99587  0.06931  1.0000
  H   H2394     1.0  0.10638  0.99320  0.09268  1.0000
  O   O6058     1.0  0.05494  0.92082  0.15139  1.0000
  H   H2395     1.0  0.05408  0.92598  0.13122  1.0000
  H   H2396     1.0  0.05302  0.93552  0.16258  1.0000
  O   O6059     1.0  0.04849  0.96879  0.16312  1.0000
  H   H2397     1.0  0.05043  0.96116  0.14423  1.0000
  H   H2398     1.0  0.03799  0.98268  0.15936  1.0000
  O   O6060     1.0  0.06143  0.97516  0.04828  1.0000
  H   H2399     1.0  0.04511  0.97176  0.05654  1.0000
  H   H2400     1.0  0.07062  0.96020  0.05034  1.0000
  O   O6061     1.0  0.02977  0.99331  0.01016  1.0000
  H   H2401     1.0  0.04286  0.98628  0.02206  1.0000
  H   H2402     1.0  0.01660  0.99728  0.02388  1.0000
  O   O6062     1.0  0.95735  0.82650  0.02883  1.0000
  H   H2403     1.0  0.94254  0.82594  0.01665  1.0000
  H   H2404     1.0  0.96081  0.84353  0.03115  1.0000
  O   O6063     1.0  0.07173  0.92567  0.98697  1.0000
  H   H2405     1.0  0.05822  0.92421  0.97297  1.0000
  H   H2406     1.0  0.08665  0.92150  0.97606  1.0000
  O   O6064     1.0  0.01553  0.87989  0.03076  1.0000
  H   H2407     1.0  0.00600  0.88239  0.04849  1.0000
  H   H2408     1.0  0.01151  0.89366  0.01865  1.0000
  O   O6065     1.0  0.99253  0.98171  0.93611  1.0000
  H   H2409     1.0  0.00751  0.98145  0.92418  1.0000
  H   H2410     1.0  0.99658  0.97166  0.95274  1.0000
  O   O6066     1.0  0.95280  0.92180  0.97772  1.0000
  H   H2411     1.0  0.94573  0.90577  0.97636  1.0000
  H   H2412     1.0  0.96910  0.91940  0.98653  1.0000
  O   O6067     1.0  0.92025  0.91830  0.02859  1.0000
  H   H2413     1.0  0.92394  0.91832  0.04929  1.0000
  H   H2414     1.0  0.90305  0.92376  0.02733  1.0000
  O   O6068     1.0  0.95417  0.88134  0.02449  1.0000
  H   H2415     1.0  0.94419  0.89500  0.03064  1.0000
  H   H2416     1.0  0.94769  0.87723  0.00538  1.0000
  O   O6069     1.0  0.98880  0.91632  0.91923  1.0000
  H   H2417     1.0  0.00309  0.92060  0.93117  1.0000
  H   H2418     1.0  0.99337  0.92141  0.89972  1.0000
  O   O6070     1.0  0.58174  0.08831  0.30225  1.0000
  H   H2419     1.0  0.59579  0.07943  0.29430  1.0000
  H   H2420     1.0  0.58152  0.10325  0.29133  1.0000
  O   O6071     1.0  0.28477  0.22384  0.89617  1.0000
  H   H2421     1.0  0.27063  0.22955  0.90747  1.0000
  H   H2422     1.0  0.29907  0.22614  0.90887  1.0000
  O   O6072     1.0  0.08762  0.77879  0.80534  1.0000
  H   H2423     1.0  0.07088  0.78552  0.80564  1.0000
  H   H2424     1.0  0.09348  0.78031  0.82527  1.0000
  O   O6073     1.0  0.90350  0.76816  0.78683  1.0000
  H   H2425     1.0  0.89691  0.78441  0.78748  1.0000
  H   H2426     1.0  0.91939  0.76970  0.77680  1.0000
  O   O6074     1.0  0.97387  0.81592  0.84394  1.0000
  H   H2427     1.0  0.98373  0.80290  0.83581  1.0000
  H   H2428     1.0  0.98189  0.83044  0.83684  1.0000
  O   O6075     1.0  0.86365  0.85834  0.77426  1.0000
  H   H2429     1.0  0.85127  0.84860  0.78423  1.0000
  H   H2430     1.0  0.85421  0.87170  0.76625  1.0000
  O   O6076     1.0  0.88700  0.81568  0.78704  1.0000
  H   H2431     1.0  0.87908  0.83099  0.78281  1.0000
  H   H2432     1.0  0.90146  0.81982  0.79878  1.0000
  O   O6077     1.0  0.92751  0.82181  0.81922  1.0000
  H   H2433     1.0  0.94251  0.81967  0.83083  1.0000
  H   H2434     1.0  0.91401  0.82211  0.83334  1.0000
  O   O6078     1.0  0.86519  0.79960  0.98426  1.0000
  H   H2435     1.0  0.85845  0.79777  0.96475  1.0000
  H   H2436     1.0  0.87790  0.78721  0.98575  1.0000
  O   O6079     1.0  0.88904  0.82312  0.94087  1.0000
  H   H2437     1.0  0.88463  0.82658  0.92079  1.0000
  H   H2438     1.0  0.87486  0.81420  0.94843  1.0000
  O   O6080     1.0  0.93649  0.76718  0.99561  1.0000
  H   H2439     1.0  0.92676  0.76646  0.97779  1.0000
  H   H2440     1.0  0.92428  0.76521  0.01107  1.0000
  O   O6081     1.0  0.83169  0.75464  0.98610  1.0000
  H   H2441     1.0  0.82223  0.74792  0.00221  1.0000
  H   H2442     1.0  0.83056  0.74259  0.97086  1.0000
  O   O6082     1.0  0.75819  0.36326  0.32742  1.0000
  H   H2443     1.0  0.74650  0.36054  0.31159  1.0000
  H   H2444     1.0  0.77450  0.36323  0.31816  1.0000
  O   O6083     1.0  0.84048  0.29377  0.66237  1.0000
  H   H2445     1.0  0.85394  0.30328  0.67063  1.0000
  H   H2446     1.0  0.83061  0.28879  0.67906  1.0000
  O   O6084     1.0  0.04215  0.49142  0.63688  1.0000
  H   H2447     1.0  0.03703  0.47577  0.62966  1.0000
  H   H2448     1.0  0.02774  0.50169  0.63364  1.0000
  O   O6085     1.0  0.94580  0.37752  0.70594  1.0000
  H   H2449     1.0  0.96392  0.37694  0.70529  1.0000
  H   H2450     1.0  0.94047  0.36346  0.69505  1.0000
  O   O6086     1.0  0.97536  0.36137  0.61276  1.0000
  H   H2451     1.0  0.98129  0.36202  0.59279  1.0000
  H   H2452     1.0  0.98855  0.36889  0.62406  1.0000
  O   O6087     1.0  0.99813  0.33245  0.70496  1.0000
  H   H2453     1.0  0.00519  0.33201  0.68549  1.0000
  H   H2454     1.0  0.99621  0.34945  0.70921  1.0000
  O   O6088     1.0  0.04266  0.37680  0.62404  1.0000
  H   H2455     1.0  0.04404  0.39179  0.63476  1.0000
  H   H2456     1.0  0.03306  0.36633  0.63674  1.0000
  O   O6089     1.0  0.00181  0.40625  0.61718  1.0000
  H   H2457     1.0  0.00165  0.39697  0.63509  1.0000
  H   H2458     1.0  0.01335  0.41934  0.62101  1.0000
  O   O6090     1.0  0.98613  0.18466  0.56527  1.0000
  H   H2459     1.0  0.00368  0.18094  0.56818  1.0000
  H   H2460     1.0  0.98591  0.20166  0.56046  1.0000
  O   O6091     1.0  0.94586  0.28291  0.57433  1.0000
  H   H2461     1.0  0.94977  0.29544  0.56032  1.0000
  H   H2462     1.0  0.95459  0.26881  0.56713  1.0000
  O   O6092     1.0  0.59465  0.79708  0.55638  1.0000
  H   H2463     1.0  0.58961  0.78496  0.54234  1.0000
  H   H2464     1.0  0.59138  0.81228  0.54671  1.0000
  O   O6093     1.0  0.86734  0.92813  0.84103  1.0000
  H   H2465     1.0  0.88235  0.91838  0.83985  1.0000
  H   H2466     1.0  0.86212  0.92686  0.86122  1.0000
  O   O6094     1.0  0.70038  0.54503  0.38055  1.0000
  H   H2467     1.0  0.70388  0.54035  0.36059  1.0000
  H   H2468     1.0  0.69742  0.56223  0.37954  1.0000
  O   O6095     1.0  0.88030  0.66719  0.60547  1.0000
  H   H2469     1.0  0.88235  0.66239  0.62566  1.0000
  H   H2470     1.0  0.86489  0.65950  0.59935  1.0000
  O   O6096     1.0  0.84933  0.84689  0.01863  1.0000
  H   H2471     1.0  0.83535  0.85403  0.02896  1.0000
  H   H2472     1.0  0.86382  0.85087  0.03040  1.0000
  O   O6097     1.0  0.47819  0.31221  0.89877  1.0000
  H   H2473     1.0  0.46722  0.30067  0.88938  1.0000
  H   H2474     1.0  0.49244  0.30277  0.90513  1.0000
  O   O6098     1.0  0.43775  0.34177  0.89497  1.0000
  H   H2475     1.0  0.44321  0.35548  0.90640  1.0000
  H   H2476     1.0  0.45170  0.33063  0.89570  1.0000
  O   O6099     1.0  0.69482  0.88312  0.74032  1.0000
  H   H2477     1.0  0.70714  0.87058  0.73717  1.0000
  H   H2478     1.0  0.68052  0.87480  0.74855  1.0000
  O   O6100     1.0  0.74721  0.01360  0.20003  1.0000
  H   H2479     1.0  0.75591  0.01053  0.18185  1.0000
  H   H2480     1.0  0.74465  0.99778  0.20845  1.0000
  O   O6101     1.0  0.25163  0.86243  0.88535  1.0000
  H   H2481     1.0  0.26030  0.84711  0.88604  1.0000
  H   H2482     1.0  0.26159  0.87223  0.87226  1.0000
  O   O6102     1.0  0.36237  0.82128  0.92842  1.0000
  H   H2483     1.0  0.35022  0.83253  0.93622  1.0000
  H   H2484     1.0  0.35812  0.81992  0.90793  1.0000
  O   O6103     1.0  0.35543  0.83275  0.98752  1.0000
  H   H2485     1.0  0.35080  0.82921  0.96753  1.0000
  H   H2486     1.0  0.37355  0.83189  0.98765  1.0000
  O   O6104     1.0  0.34883  0.81902  0.87219  1.0000
  H   H2487     1.0  0.34008  0.80493  0.87938  1.0000
  H   H2488     1.0  0.33567  0.82967  0.86544  1.0000
  O   O6105     1.0  0.37598  0.78329  0.96907  1.0000
  H   H2489     1.0  0.38536  0.79823  0.96854  1.0000
  H   H2490     1.0  0.37535  0.77806  0.94891  1.0000
  O   O6106     1.0  0.28285  0.75818  0.90693  1.0000
  H   H2491     1.0  0.29853  0.76592  0.90191  1.0000
  H   H2492     1.0  0.28772  0.74271  0.91492  1.0000
  O   O6107     1.0  0.65568  0.28936  0.55801  1.0000
  H   H2493     1.0  0.64569  0.29710  0.57296  1.0000
  H   H2494     1.0  0.67181  0.29729  0.55914  1.0000
  O   O6108     1.0  0.73853  0.32789  0.56342  1.0000
  H   H2495     1.0  0.72837  0.31541  0.55458  1.0000
  H   H2496     1.0  0.75562  0.32316  0.55923  1.0000
  O   O6109     1.0  0.70335  0.29731  0.54219  1.0000
  H   H2497     1.0  0.70468  0.29953  0.56311  1.0000
  H   H2498     1.0  0.71276  0.28274  0.53828  1.0000
  O   O6110     1.0  0.41118  0.29526  0.76002  1.0000
  H   H2499     1.0  0.42542  0.28996  0.77144  1.0000
  H   H2500     1.0  0.41514  0.31172  0.75471  1.0000
  O   O6111     1.0  0.51350  0.33030  0.79182  1.0000
  H   H2501     1.0  0.51085  0.31852  0.80712  1.0000
  H   H2502     1.0  0.52702  0.34032  0.79899  1.0000
  O   O6112     1.0  0.45711  0.32972  0.83282  1.0000
  H   H2503     1.0  0.46650  0.34460  0.83122  1.0000
  H   H2504     1.0  0.44244  0.33227  0.82077  1.0000
  O   O6113     1.0  0.48967  0.42819  0.75863  1.0000
  H   H2505     1.0  0.50280  0.41618  0.75973  1.0000
  H   H2506     1.0  0.47435  0.41925  0.76195  1.0000
  O   O6114     1.0  0.47370  0.42077  0.81283  1.0000
  H   H2507     1.0  0.47596  0.42593  0.79280  1.0000
  H   H2508     1.0  0.48778  0.41022  0.81659  1.0000
  O   O6115     1.0  0.38368  0.35970  0.83708  1.0000
  H   H2509     1.0  0.39640  0.35058  0.82683  1.0000
  H   H2510     1.0  0.37641  0.37002  0.82228  1.0000
  O   O6116     1.0  0.49217  0.32461  0.73079  1.0000
  H   H2511     1.0  0.48930  0.31162  0.71707  1.0000
  H   H2512     1.0  0.49959  0.31685  0.74764  1.0000
  O   O6117     1.0  0.54082  0.28962  0.75775  1.0000
  H   H2513     1.0  0.53948  0.28172  0.77654  1.0000
  H   H2514     1.0  0.55774  0.29591  0.75730  1.0000
  O   O6118     1.0  0.54789  0.31084  0.69615  1.0000
  H   H2515     1.0  0.53654  0.30681  0.68040  1.0000
  H   H2516     1.0  0.55470  0.32639  0.69076  1.0000
  O   O6119     1.0  0.56021  0.31571  0.63481  1.0000
  H   H2517     1.0  0.54838  0.31469  0.65079  1.0000
  H   H2518     1.0  0.57648  0.31449  0.64405  1.0000
  O   O6120     1.0  0.51993  0.33961  0.65328  1.0000
  H   H2519     1.0  0.51206  0.32444  0.65830  1.0000
  H   H2520     1.0  0.53613  0.33511  0.64549  1.0000
  O   O6121     1.0  0.66745  0.35695  0.62134  1.0000
  H   H2521     1.0  0.66781  0.34812  0.60311  1.0000
  H   H2522     1.0  0.65500  0.34870  0.63302  1.0000
  O   O6122     1.0  0.57436  0.35190  0.69711  1.0000
  H   H2523     1.0  0.58114  0.35507  0.67787  1.0000
  H   H2524     1.0  0.58838  0.34559  0.70813  1.0000
  O   O6123     1.0  0.59573  0.31129  0.67535  1.0000
  H   H2525     1.0  0.57981  0.30388  0.68005  1.0000
  H   H2526     1.0  0.59383  0.32795  0.68127  1.0000
  O   O6124     1.0  0.63192  0.37907  0.56159  1.0000
  H   H2527     1.0  0.62946  0.36180  0.56255  1.0000
  H   H2528     1.0  0.62163  0.38423  0.54534  1.0000
  O   O6125     1.0  0.54513  0.39947  0.49227  1.0000
  H   H2529     1.0  0.56082  0.40289  0.48249  1.0000
  H   H2530     1.0  0.53682  0.41495  0.49356  1.0000
  O   O6126     1.0  0.64111  0.28373  0.65082  1.0000
  H   H2531     1.0  0.63418  0.29754  0.64072  1.0000
  H   H2532     1.0  0.65628  0.28975  0.65984  1.0000
  O   O6127     1.0  0.60991  0.33474  0.54133  1.0000
  H   H2533     1.0  0.60539  0.33607  0.56175  1.0000
  H   H2534     1.0  0.60494  0.35001  0.53288  1.0000
  O   O6128     1.0  0.71253  0.33265  0.71415  1.0000
  H   H2535     1.0  0.70729  0.34825  0.72142  1.0000
  H   H2536     1.0  0.71107  0.33397  0.69313  1.0000
  O   O6129     1.0  0.48250  0.53240  0.71589  1.0000
  H   H2537     1.0  0.46823  0.54004  0.70670  1.0000
  H   H2538     1.0  0.47736  0.51582  0.71871  1.0000
  O   O6130     1.0  0.44101  0.48715  0.77762  1.0000
  H   H2539     1.0  0.43611  0.47046  0.78000  1.0000
  H   H2540     1.0  0.45054  0.48739  0.75963  1.0000
  O   O6131     1.0  0.43831  0.38561  0.70673  1.0000
  H   H2541     1.0  0.42976  0.39825  0.71737  1.0000
  H   H2542     1.0  0.42672  0.37218  0.70695  1.0000
  O   O6132     1.0  0.80049  0.94333  0.59835  1.0000
  H   H2543     1.0  0.81154  0.95717  0.59869  1.0000
  H   H2544     1.0  0.79951  0.93820  0.61853  1.0000
  O   O6133     1.0  0.73738  0.79497  0.82345  1.0000
  H   H2545     1.0  0.73412  0.80141  0.84273  1.0000
  H   H2546     1.0  0.73503  0.77775  0.82554  1.0000
  O   O6134     1.0  0.60506  0.62145  0.78441  1.0000
  H   H2547     1.0  0.60830  0.61192  0.76711  1.0000
  H   H2548     1.0  0.60433  0.63790  0.77740  1.0000
  O   O6135     1.0  0.61520  0.75301  0.87411  1.0000
  H   H2549     1.0  0.61138  0.74057  0.85996  1.0000
  H   H2550     1.0  0.63032  0.74745  0.88366  1.0000
  O   O6136     1.0  0.62022  0.71243  0.84443  1.0000
  H   H2551     1.0  0.60554  0.70235  0.84667  1.0000
  H   H2552     1.0  0.62115  0.71562  0.82367  1.0000
  O   O6137     1.0  0.74170  0.75628  0.91998  1.0000
  H   H2553     1.0  0.74028  0.76998  0.90698  1.0000
  H   H2554     1.0  0.72648  0.74717  0.91677  1.0000
  O   O6138     1.0  0.68446  0.81036  0.84102  1.0000
  H   H2555     1.0  0.68946  0.79448  0.84757  1.0000
  H   H2556     1.0  0.69506  0.81356  0.82431  1.0000
  O   O6139     1.0  0.84535  0.69028  0.65218  1.0000
  H   H2557     1.0  0.82751  0.69204  0.64903  1.0000
  H   H2558     1.0  0.84779  0.67313  0.65491  1.0000
  O   O6140     1.0  0.84065  0.73990  0.65657  1.0000
  H   H2559     1.0  0.85472  0.74943  0.66325  1.0000
  H   H2560     1.0  0.84672  0.72345  0.65687  1.0000
  O   O6141     1.0  0.89842  0.58211  0.67551  1.0000
  H   H2561     1.0  0.90802  0.59416  0.66508  1.0000
  H   H2562     1.0  0.88114  0.58693  0.67282  1.0000
  O   O6142     1.0  0.87779  0.59466  0.60235  1.0000
  H   H2563     1.0  0.88430  0.60641  0.61602  1.0000
  H   H2564     1.0  0.86379  0.60270  0.59307  1.0000
  O   O6143     1.0  0.80537  0.94058  0.79057  1.0000
  H   H2565     1.0  0.80892  0.93692  0.77031  1.0000
  H   H2566     1.0  0.79169  0.95203  0.78981  1.0000
  O   O6144     1.0  0.80015  0.94303  0.73278  1.0000
  H   H2567     1.0  0.79093  0.95663  0.72504  1.0000
  H   H2568     1.0  0.78896  0.92944  0.73032  1.0000
  O   O6145     1.0  0.76962  0.96991  0.77027  1.0000
  H   H2569     1.0  0.77627  0.95686  0.75856  1.0000
  H   H2570     1.0  0.75458  0.96333  0.77899  1.0000
  O   O6146     1.0  0.39745  0.71501  0.41972  1.0000
  H   H2571     1.0  0.41048  0.72675  0.41598  1.0000
  H   H2572     1.0  0.39788  0.71261  0.44066  1.0000
  O   O6147     1.0  0.47611  0.86567  0.57852  1.0000
  H   H2573     1.0  0.47461  0.84969  0.58685  1.0000
  H   H2574     1.0  0.47737  0.86294  0.55769  1.0000
  O   O6148     1.0  0.52314  0.82305  0.50800  1.0000
  H   H2575     1.0  0.51708  0.80750  0.50149  1.0000
  H   H2576     1.0  0.51491  0.83455  0.49531  1.0000
  O   O6149     1.0  0.46552  0.81928  0.48069  1.0000
  H   H2577     1.0  0.47793  0.83080  0.47413  1.0000
  H   H2578     1.0  0.46187  0.80965  0.46358  1.0000
  O   O6150     1.0  0.91190  0.63478  0.70815  1.0000
  H   H2579     1.0  0.90236  0.64960  0.70705  1.0000
  H   H2580     1.0  0.92743  0.63936  0.71756  1.0000
  O   O6151     1.0  0.94771  0.61840  0.67193  1.0000
  H   H2581     1.0  0.93756  0.62503  0.68751  1.0000
  H   H2582     1.0  0.96475  0.61971  0.67900  1.0000
  O   O6152     1.0  0.81260  0.65930  0.69329  1.0000
  H   H2583     1.0  0.82405  0.67129  0.70090  1.0000
  H   H2584     1.0  0.81271  0.64658  0.70776  1.0000
  O   O6153     1.0  0.74080  0.55854  0.68714  1.0000
  H   H2585     1.0  0.74506  0.57155  0.70033  1.0000
  H   H2586     1.0  0.75477  0.54747  0.68854  1.0000
  O   O6154     1.0  0.52299  0.76968  0.43338  1.0000
  H   H2587     1.0  0.52889  0.75317  0.43340  1.0000
  H   H2588     1.0  0.51556  0.77186  0.45249  1.0000
  O   O6155     1.0  0.43258  0.84138  0.56121  1.0000
  H   H2589     1.0  0.44367  0.82802  0.55698  1.0000
  H   H2590     1.0  0.44353  0.85396  0.56842  1.0000
  O   O6156     1.0  0.58731  0.73698  0.47402  1.0000
  H   H2591     1.0  0.58396  0.75148  0.48512  1.0000
  H   H2592     1.0  0.59281  0.72536  0.48844  1.0000
  O   O6157     1.0  0.76118  0.62658  0.73054  1.0000
  H   H2593     1.0  0.76494  0.60996  0.72581  1.0000
  H   H2594     1.0  0.76150  0.63485  0.71193  1.0000
  O   O6158     1.0  0.54265  0.76057  0.60180  1.0000
  H   H2595     1.0  0.55143  0.74714  0.59299  1.0000
  H   H2596     1.0  0.52543  0.75860  0.59560  1.0000
  O   O6159     1.0  0.52555  0.76246  0.53564  1.0000
  H   H2597     1.0  0.52474  0.77396  0.51976  1.0000
  H   H2598     1.0  0.51192  0.75137  0.53186  1.0000
  O   O6160     1.0  0.49427  0.75212  0.58195  1.0000
  H   H2599     1.0  0.50440  0.74950  0.56470  1.0000
  H   H2600     1.0  0.49584  0.76920  0.58589  1.0000
  O   O6161     1.0  0.64343  0.72928  0.51771  1.0000
  H   H2601     1.0  0.64915  0.72370  0.53660  1.0000
  H   H2602     1.0  0.62930  0.71901  0.51314  1.0000
  O   O6162     1.0  0.61392  0.73698  0.57992  1.0000
  H   H2603     1.0  0.60197  0.73949  0.56430  1.0000
  H   H2604     1.0  0.62656  0.72656  0.57150  1.0000
  O   O6163     1.0  0.73204  0.66337  0.56781  1.0000
  H   H2605     1.0  0.73754  0.65152  0.58195  1.0000
  H   H2606     1.0  0.71549  0.66803  0.57437  1.0000
  O   O6164     1.0  0.79265  0.58415  0.61893  1.0000
  H   H2607     1.0  0.77484  0.58729  0.62021  1.0000
  H   H2608     1.0  0.80025  0.59638  0.63113  1.0000
  O   O6165     1.0  0.80500  0.62042  0.65415  1.0000
  H   H2609     1.0  0.80523  0.60545  0.66502  1.0000
  H   H2610     1.0  0.80768  0.63278  0.66875  1.0000
  O   O6166     1.0  0.44965  0.72284  0.37126  1.0000
  H   H2611     1.0  0.44204  0.73089  0.38779  1.0000
  H   H2612     1.0  0.46748  0.72501  0.37409  1.0000
  O   O6167     1.0  0.52839  0.73328  0.29619  1.0000
  H   H2613     1.0  0.54582  0.72897  0.29883  1.0000
  H   H2614     1.0  0.52191  0.72122  0.28290  1.0000
  O   O6168     1.0  0.48611  0.74465  0.32858  1.0000
  H   H2615     1.0  0.50033  0.74105  0.31620  1.0000
  H   H2616     1.0  0.49139  0.73981  0.34794  1.0000
  O   O6169     1.0  0.76659  0.83638  0.76169  1.0000
  H   H2617     1.0  0.75404  0.84868  0.75837  1.0000
  H   H2618     1.0  0.75861  0.82152  0.75564  1.0000
  O   O6170     1.0  0.76003  0.74822  0.71154  1.0000
  H   H2619     1.0  0.75070  0.73444  0.70445  1.0000
  H   H2620     1.0  0.75413  0.76158  0.69980  1.0000
  O   O6171     1.0  0.65123  0.75530  0.68249  1.0000
  H   H2621     1.0  0.64633  0.77179  0.67853  1.0000
  H   H2622     1.0  0.64216  0.74583  0.66821  1.0000
  O   O6172     1.0  0.68693  0.78116  0.65313  1.0000
  H   H2623     1.0  0.67452  0.77188  0.66368  1.0000
  H   H2624     1.0  0.70283  0.77571  0.66089  1.0000
  O   O6173     1.0  0.61297  0.69715  0.62972  1.0000
  H   H2625     1.0  0.60864  0.69349  0.60967  1.0000
  H   H2626     1.0  0.61504  0.71449  0.63006  1.0000
  O   O6174     1.0  0.60037  0.68486  0.57232  1.0000
  H   H2627     1.0  0.58810  0.67254  0.56788  1.0000
  H   H2628     1.0  0.61547  0.67599  0.57700  1.0000
  O   O6175     1.0  0.51822  0.64807  0.52757  1.0000
  H   H2629     1.0  0.53500  0.65463  0.52874  1.0000
  H   H2630     1.0  0.51554  0.64527  0.50693  1.0000
  O   O6176     1.0  0.55154  0.60454  0.49660  1.0000
  H   H2631     1.0  0.54149  0.61679  0.48713  1.0000
  H   H2632     1.0  0.56424  0.61349  0.50711  1.0000
  O   O6177     1.0  0.55928  0.50676  0.47840  1.0000
  H   H2633     1.0  0.57161  0.49730  0.48885  1.0000
  H   H2634     1.0  0.56523  0.52320  0.47997  1.0000
  O   O6178     1.0  0.69065  0.56765  0.56614  1.0000
  H   H2635     1.0  0.69736  0.56350  0.58513  1.0000
  H   H2636     1.0  0.67377  0.57314  0.57010  1.0000
  O   O6179     1.0  0.61003  0.60501  0.48701  1.0000
  H   H2637     1.0  0.62140  0.60146  0.50291  1.0000
  H   H2638     1.0  0.59808  0.61624  0.49526  1.0000
  O   O6180     1.0  0.64219  0.56515  0.48667  1.0000
  H   H2639     1.0  0.63254  0.55262  0.49616  1.0000
  H   H2640     1.0  0.63123  0.57906  0.48666  1.0000
  O   O6181     1.0  0.67717  0.68313  0.64048  1.0000
  H   H2641     1.0  0.69396  0.68758  0.63456  1.0000
  H   H2642     1.0  0.66863  0.67938  0.62238  1.0000
  O   O6182     1.0  0.65687  0.57897  0.69241  1.0000
  H   H2643     1.0  0.66684  0.56582  0.68477  1.0000
  H   H2644     1.0  0.66773  0.58687  0.70638  1.0000
  O   O6183     1.0  0.64798  0.61244  0.82614  1.0000
  H   H2645     1.0  0.66039  0.60813  0.84065  1.0000
  H   H2646     1.0  0.63389  0.60198  0.83022  1.0000
  O   O6184     1.0  0.66971  0.53094  0.76466  1.0000
  H   H2647     1.0  0.68168  0.53619  0.75010  1.0000
  H   H2648     1.0  0.67924  0.53023  0.78263  1.0000
  O   O6185     1.0  0.71070  0.55526  0.62297  1.0000
  H   H2649     1.0  0.70271  0.55146  0.64139  1.0000
  H   H2650     1.0  0.71370  0.53974  0.61395  1.0000
  O   O6186     1.0  0.69016  0.54485  0.88572  1.0000
  H   H2651     1.0  0.67950  0.55790  0.87918  1.0000
  H   H2652     1.0  0.68499  0.53113  0.87412  1.0000
  O   O6187     1.0  0.65951  0.58525  0.93758  1.0000
  H   H2653     1.0  0.65650  0.57637  0.91972  1.0000
  H   H2654     1.0  0.66631  0.60053  0.93114  1.0000
  O   O6188     1.0  0.66377  0.45893  0.85239  1.0000
  H   H2655     1.0  0.67749  0.46994  0.85609  1.0000
  H   H2656     1.0  0.67142  0.44310  0.85265  1.0000
  O   O6189     1.0  0.70353  0.44696  0.82078  1.0000
  H   H2657     1.0  0.70020  0.43007  0.81710  1.0000
  H   H2658     1.0  0.68943  0.45234  0.83238  1.0000
  O   O6190     1.0  0.67580  0.48184  0.79785  1.0000
  H   H2659     1.0  0.68598  0.46917  0.80627  1.0000
  H   H2660     1.0  0.68284  0.49661  0.80559  1.0000
  O   O6191     1.0  0.91448  0.40570  0.35677  1.0000
  H   H2661     1.0  0.91165  0.42204  0.36343  1.0000
  H   H2662     1.0  0.89803  0.39834  0.35694  1.0000
  O   O6192     1.0  0.91559  0.44158  0.42365  1.0000
  H   H2663     1.0  0.91552  0.45339  0.43921  1.0000
  H   H2664     1.0  0.90233  0.44673  0.41063  1.0000
  O   O6193     1.0  0.85707  0.25236  0.31196  1.0000
  H   H2665     1.0  0.84716  0.26698  0.31199  1.0000
  H   H2666     1.0  0.87423  0.25791  0.31057  1.0000
  O   O6194     1.0  0.58864  0.94731  0.26947  1.0000
  H   H2667     1.0  0.59137  0.94142  0.28912  1.0000
  H   H2668     1.0  0.58128  0.96312  0.27211  1.0000
  O   O6195     1.0  0.56410  0.07315  0.44371  1.0000
  H   H2669     1.0  0.54997  0.07447  0.45687  1.0000
  H   H2670     1.0  0.55913  0.06095  0.42974  1.0000
  O   O6196     1.0  0.56967  0.98807  0.29678  1.0000
  H   H2671     1.0  0.56225  0.00120  0.30769  1.0000
  H   H2672     1.0  0.57474  0.97655  0.31153  1.0000
  O   O6197     1.0  0.60719  0.94709  0.40029  1.0000
  H   H2673     1.0  0.61906  0.94689  0.38431  1.0000
  H   H2674     1.0  0.59345  0.95690  0.39325  1.0000
  O   O6198     1.0  0.62725  0.01559  0.39448  1.0000
  H   H2675     1.0  0.60938  0.01267  0.39533  1.0000
  H   H2676     1.0  0.62945  0.02594  0.37765  1.0000
  O   O6199     1.0  0.63413  0.99808  0.32109  1.0000
  H   H2677     1.0  0.61950  0.00761  0.32589  1.0000
  H   H2678     1.0  0.63149  0.98290  0.33106  1.0000
  O   O6200     1.0  0.47890  0.04047  0.34444  1.0000
  H   H2679     1.0  0.49408  0.04944  0.34844  1.0000
  H   H2680     1.0  0.46811  0.04385  0.36094  1.0000
  O   O6201     1.0  0.43619  0.03689  0.37613  1.0000
  H   H2681     1.0  0.44417  0.02690  0.39077  1.0000
  H   H2682     1.0  0.44034  0.05323  0.38177  1.0000
  O   O6202     1.0  0.51363  0.08865  0.41461  1.0000
  H   H2683     1.0  0.49597  0.09237  0.41631  1.0000
  H   H2684     1.0  0.51666  0.07673  0.42965  1.0000
  O   O6203     1.0  0.59370  0.29668  0.87141  1.0000
  H   H2685     1.0  0.60682  0.28947  0.88312  1.0000
  H   H2686     1.0  0.59036  0.31200  0.88076  1.0000
  O   O6204     1.0  0.63114  0.27024  0.89948  1.0000
  H   H2687     1.0  0.64298  0.28337  0.89756  1.0000
  H   H2688     1.0  0.64062  0.25599  0.89429  1.0000
  O   O6205     1.0  0.64228  0.25690  0.95321  1.0000
  H   H2689     1.0  0.65802  0.26505  0.95683  1.0000
  H   H2690     1.0  0.63777  0.26155  0.93352  1.0000
  O   O6206     1.0  0.77891  0.29064  0.98048  1.0000
  H   H2691     1.0  0.76579  0.28126  0.97131  1.0000
  H   H2692     1.0  0.77273  0.30705  0.98009  1.0000
  O   O6207     1.0  0.74693  0.25938  0.95654  1.0000
  H   H2693     1.0  0.73306  0.24935  0.95037  1.0000
  H   H2694     1.0  0.74395  0.27475  0.94713  1.0000
  O   O6208     1.0  0.93017  0.65908  0.03698  1.0000
  H   H2695     1.0  0.94078  0.64959  0.02426  1.0000
  H   H2696     1.0  0.93754  0.65724  0.05617  1.0000
  O   O6209     1.0  0.81521  0.42240  0.85695  1.0000
  H   H2697     1.0  0.82717  0.43266  0.86687  1.0000
  H   H2698     1.0  0.80502  0.43341  0.84563  1.0000
  O   O6210     1.0  0.94708  0.47386  0.04084  1.0000
  H   H2699     1.0  0.94760  0.48631  0.02603  1.0000
  H   H2700     1.0  0.95900  0.46189  0.03422  1.0000
  O   O6211     1.0  0.83249  0.48548  0.24506  1.0000
  H   H2701     1.0  0.83668  0.47106  0.25593  1.0000
  H   H2702     1.0  0.82514  0.49617  0.25941  1.0000
  O   O6212     1.0  0.75089  0.57735  0.05956  1.0000
  H   H2703     1.0  0.76770  0.57171  0.05553  1.0000
  H   H2704     1.0  0.74138  0.56281  0.06332  1.0000
  O   O6213     1.0  0.79335  0.63131  0.12809  1.0000
  H   H2705     1.0  0.77627  0.63283  0.12121  1.0000
  H   H2706     1.0  0.80280  0.62661  0.11096  1.0000
  O   O6214     1.0  0.81846  0.61846  0.08061  1.0000
  H   H2707     1.0  0.80864  0.63247  0.07531  1.0000
  H   H2708     1.0  0.82737  0.61423  0.06292  1.0000
  O   O6215     1.0  0.81982  0.50364  0.83850  1.0000
  H   H2709     1.0  0.83514  0.50266  0.84977  1.0000
  H   H2710     1.0  0.82084  0.51905  0.82864  1.0000
  O   O6216     1.0  0.87602  0.56366  0.95460  1.0000
  H   H2711     1.0  0.88812  0.55664  0.96786  1.0000
  H   H2712     1.0  0.86420  0.57187  0.96718  1.0000
  O   O6217     1.0  0.89326  0.46161  0.96543  1.0000
  H   H2713     1.0  0.88520  0.46493  0.94692  1.0000
  H   H2714     1.0  0.89647  0.47736  0.97373  1.0000
  O   O6218     1.0  0.84662  0.56964  0.04723  1.0000
  H   H2715     1.0  0.84858  0.55783  0.06263  1.0000
  H   H2716     1.0  0.83673  0.56150  0.03250  1.0000
  O   O6219     1.0  0.81948  0.54565  0.00836  1.0000
  H   H2717     1.0  0.82675  0.56112  0.00342  1.0000
  H   H2718     1.0  0.82582  0.53474  0.99360  1.0000
  O   O6220     1.0  0.81887  0.50072  0.04007  1.0000
  H   H2719     1.0  0.81657  0.49424  0.02062  1.0000
  H   H2720     1.0  0.80236  0.50011  0.04879  1.0000
  O   O6221     1.0  0.78072  0.51137  0.00553  1.0000
  H   H2721     1.0  0.78663  0.51543  0.98615  1.0000
  H   H2722     1.0  0.79579  0.50779  0.01646  1.0000
  O   O6222     1.0  0.74762  0.56275  0.99750  1.0000
  H   H2723     1.0  0.73885  0.57462  0.98585  1.0000
  H   H2724     1.0  0.73506  0.55665  0.01084  1.0000
  O   O6223     1.0  0.71027  0.54799  0.03276  1.0000
  H   H2725     1.0  0.70500  0.56244  0.04291  1.0000
  H   H2726     1.0  0.72297  0.54101  0.04526  1.0000
  O   O6224     1.0  0.96617  0.60312  0.11474  1.0000
  H   H2727     1.0  0.95563  0.58891  0.11455  1.0000
  H   H2728     1.0  0.96153  0.61184  0.09724  1.0000
  O   O6225     1.0  0.90865  0.45834  0.26887  1.0000
  H   H2729     1.0  0.92263  0.45112  0.27913  1.0000
  H   H2730     1.0  0.90045  0.44493  0.25928  1.0000
  O   O6226     1.0  0.94747  0.43951  0.29760  1.0000
  H   H2731     1.0  0.96053  0.43907  0.28293  1.0000
  H   H2732     1.0  0.93643  0.42632  0.29247  1.0000
  O   O6227     1.0  0.94176  0.48609  0.34869  1.0000
  H   H2733     1.0  0.95365  0.48118  0.36351  1.0000
  H   H2734     1.0  0.95201  0.49039  0.33204  1.0000
  O   O6228     1.0  0.92934  0.46558  0.21574  1.0000
  H   H2735     1.0  0.94386  0.47213  0.22562  1.0000
  H   H2736     1.0  0.91799  0.46118  0.23135  1.0000
  O   O6229     1.0  0.92872  0.54804  0.20706  1.0000
  H   H2737     1.0  0.91789  0.54932  0.22395  1.0000
  H   H2738     1.0  0.93707  0.56351  0.20598  1.0000
  O   O6230     1.0  0.89584  0.53789  0.24816  1.0000
  H   H2739     1.0  0.87914  0.53429  0.24116  1.0000
  H   H2740     1.0  0.90105  0.52338  0.25822  1.0000
  O   O6231     1.0  0.89332  0.53717  0.06011  1.0000
  H   H2741     1.0  0.87722  0.53531  0.06959  1.0000
  H   H2742     1.0  0.89615  0.55441  0.05977  1.0000
  O   O6232     1.0  0.84505  0.54073  0.21990  1.0000
  H   H2743     1.0  0.82853  0.53639  0.21292  1.0000
  H   H2744     1.0  0.85630  0.53001  0.20958  1.0000
  O   O6233     1.0  0.83870  0.58195  0.13078  1.0000
  H   H2745     1.0  0.84434  0.56981  0.14448  1.0000
  H   H2746     1.0  0.82773  0.57335  0.11756  1.0000
  O   O6234     1.0  0.96087  0.58194  0.18427  1.0000
  H   H2747     1.0  0.96070  0.59933  0.18253  1.0000
  H   H2748     1.0  0.97838  0.57787  0.18675  1.0000
  O   O6235     1.0  0.91832  0.57085  0.15389  1.0000
  H   H2749     1.0  0.93288  0.57283  0.16628  1.0000
  H   H2750     1.0  0.91010  0.55655  0.16132  1.0000
  O   O6236     1.0  0.80977  0.51490  0.18676  1.0000
  H   H2751     1.0  0.82245  0.52480  0.17756  1.0000
  H   H2752     1.0  0.80721  0.50169  0.17327  1.0000
  O   O6237     1.0  0.85558  0.42392  0.14898  1.0000
  H   H2753     1.0  0.85984  0.43805  0.13760  1.0000
  H   H2754     1.0  0.86750  0.42393  0.16492  1.0000
  O   O6238     1.0  0.87433  0.46485  0.12461  1.0000
  H   H2755     1.0  0.85927  0.45767  0.11664  1.0000
  H   H2756     1.0  0.87063  0.48192  0.12561  1.0000
  O   O6239     1.0  0.84850  0.39986  0.98792  1.0000
  H   H2757     1.0  0.84194  0.41550  0.99335  1.0000
  H   H2758     1.0  0.83513  0.38869  0.99253  1.0000
  O   O6240     1.0  0.78787  0.40443  0.98250  1.0000
  H   H2759     1.0  0.77702  0.39044  0.98253  1.0000
  H   H2760     1.0  0.79655  0.40363  0.96396  1.0000
  O   O6241     1.0  0.82501  0.43007  0.94806  1.0000
  H   H2761     1.0  0.83021  0.44323  0.96056  1.0000
  H   H2762     1.0  0.83133  0.41575  0.95765  1.0000
  O   O6242     1.0  0.82617  0.35492  0.99169  1.0000
  H   H2763     1.0  0.83821  0.34497  0.00193  1.0000
  H   H2764     1.0  0.82396  0.34703  0.97301  1.0000
  O   O6243     1.0  0.78365  0.36925  0.92044  1.0000
  H   H2765     1.0  0.77509  0.37202  0.90210  1.0000
  H   H2766     1.0  0.79395  0.35518  0.91690  1.0000
  O   O6244     1.0  0.73671  0.35583  0.84534  1.0000
  H   H2767     1.0  0.74006  0.36004  0.82519  1.0000
  H   H2768     1.0  0.74320  0.36928  0.85649  1.0000
  O   O6245     1.0  0.10395  0.99224  0.53819  1.0000
  H   H2769     1.0  0.08645  0.98814  0.54072  1.0000
  H   H2770     1.0  0.11226  0.98501  0.55482  1.0000
  O   O6246     1.0  0.14380  0.01511  0.50044  1.0000
  H   H2771     1.0  0.14930  0.00219  0.51313  1.0000
  H   H2772     1.0  0.13098  0.00786  0.48833  1.0000
  O   O6247     1.0  0.19724  0.00434  0.52954  1.0000
  H   H2773     1.0  0.19864  0.01288  0.51117  1.0000
  H   H2774     1.0  0.18185  0.99521  0.52782  1.0000
  O   O6248     1.0  0.14927  0.93529  0.49732  1.0000
  H   H2775     1.0  0.16570  0.93862  0.50533  1.0000
  H   H2776     1.0  0.14436  0.92018  0.50622  1.0000
  O   O6249     1.0  0.20463  0.96018  0.57462  1.0000
  H   H2777     1.0  0.18733  0.95619  0.57875  1.0000
  H   H2778     1.0  0.20756  0.95387  0.55520  1.0000
  O   O6250     1.0  0.37520  0.50889  0.11869  1.0000
  H   H2779     1.0  0.37236  0.50237  0.13802  1.0000
  H   H2780     1.0  0.38392  0.49618  0.10835  1.0000
  O   O6251     1.0  0.41659  0.59870  0.06127  1.0000
  H   H2781     1.0  0.41883  0.58144  0.06298  1.0000
  H   H2782     1.0  0.41082  0.60109  0.04143  1.0000
  O   O6252     1.0  0.44934  0.48750  0.09669  1.0000
  H   H2783     1.0  0.45941  0.49081  0.07957  1.0000
  H   H2784     1.0  0.43247  0.48570  0.08924  1.0000
  O   O6253     1.0  0.42071  0.54739  0.05734  1.0000
  H   H2785     1.0  0.40279  0.54505  0.05896  1.0000
  H   H2786     1.0  0.42322  0.55294  0.03751  1.0000
  O   O6254     1.0  0.40059  0.48256  0.07266  1.0000
  H   H2787     1.0  0.39926  0.49151  0.05457  1.0000
  H   H2788     1.0  0.39302  0.46709  0.06839  1.0000
  O   O6255     1.0  0.36522  0.49733  0.96178  1.0000
  H   H2789     1.0  0.35563  0.51214  0.96237  1.0000
  H   H2790     1.0  0.36356  0.49172  0.94185  1.0000
  O   O6256     1.0  0.35185  0.45793  0.99339  1.0000
  H   H2791     1.0  0.33810  0.46779  0.00027  1.0000
  H   H2792     1.0  0.36102  0.46831  0.98017  1.0000
  O   O6257     1.0  0.32345  0.49986  0.99665  1.0000
  H   H2793     1.0  0.33827  0.49884  0.98452  1.0000
  H   H2794     1.0  0.32734  0.49006  0.01355  1.0000
  O   O6258     1.0  0.31783  0.43982  0.95192  1.0000
  H   H2795     1.0  0.31670  0.45116  0.93590  1.0000
  H   H2796     1.0  0.32971  0.44705  0.96529  1.0000
  O   O6259     1.0  0.32997  0.47282  0.04737  1.0000
  H   H2797     1.0  0.34026  0.48571  0.05506  1.0000
  H   H2798     1.0  0.34056  0.45867  0.04834  1.0000
  O   O6260     1.0  0.38939  0.49447  0.01467  1.0000
  H   H2799     1.0  0.39943  0.50900  0.01420  1.0000
  H   H2800     1.0  0.39696  0.48405  0.00018  1.0000
  O   O6261     1.0  0.45438  0.43464  0.91177  1.0000
  H   H2801     1.0  0.45517  0.45005  0.90188  1.0000
  H   H2802     1.0  0.44211  0.43697  0.92709  1.0000
  O   O6262     1.0  0.47705  0.51927  0.91451  1.0000
  H   H2803     1.0  0.49206  0.51938  0.92638  1.0000
  H   H2804     1.0  0.46747  0.50569  0.92171  1.0000
  O   O6263     1.0  0.53621  0.39354  0.95880  1.0000
  H   H2805     1.0  0.51969  0.38740  0.95420  1.0000
  H   H2806     1.0  0.54688  0.37942  0.95875  1.0000
  O   O6264     1.0  0.50289  0.42485  0.93004  1.0000
  H   H2807     1.0  0.50907  0.41099  0.94069  1.0000
  H   H2808     1.0  0.48514  0.42182  0.92772  1.0000
  O   O6265     1.0  0.46547  0.46590  0.83765  1.0000
  H   H2809     1.0  0.45144  0.47459  0.82935  1.0000
  H   H2810     1.0  0.46412  0.46864  0.85847  1.0000
  O   O6266     1.0  0.36983  0.51260  0.77054  1.0000
  H   H2811     1.0  0.37632  0.52369  0.75607  1.0000
  H   H2812     1.0  0.37910  0.51634  0.78814  1.0000
  O   O6267     1.0  0.37525  0.53418  0.71951  1.0000
  H   H2813     1.0  0.37639  0.55073  0.71291  1.0000
  H   H2814     1.0  0.35934  0.53333  0.72962  1.0000
  O   O6268     1.0  0.85199  0.45873  0.75015  1.0000
  H   H2815     1.0  0.86632  0.46936  0.75156  1.0000
  H   H2816     1.0  0.83763  0.46932  0.75176  1.0000
  O   O6269     1.0  0.81637  0.49203  0.75514  1.0000
  H   H2817     1.0  0.82799  0.50519  0.75209  1.0000
  H   H2818     1.0  0.80009  0.49885  0.75078  1.0000
  O   O6270     1.0  0.66610  0.95681  0.74913  1.0000
  H   H2819     1.0  0.65578  0.95599  0.76649  1.0000
  H   H2820     1.0  0.68312  0.95596  0.75637  1.0000
  O   O6271     1.0  0.70467  0.04320  0.66771  1.0000
  H   H2821     1.0  0.69090  0.05352  0.67345  1.0000
  H   H2822     1.0  0.70560  0.04491  0.64669  1.0000
  O   O6272     1.0  0.72388  0.05308  0.55100  1.0000
  H   H2823     1.0  0.72773  0.05264  0.57166  1.0000
  H   H2824     1.0  0.70607  0.04987  0.54998  1.0000
  O   O6273     1.0  0.25530  0.71964  0.40114  1.0000
  H   H2825     1.0  0.26950  0.71000  0.39507  1.0000
  H   H2826     1.0  0.24323  0.70803  0.40830  1.0000
  O   O6274     1.0  0.43654  0.55243  0.68773  1.0000
  H   H2827     1.0  0.42569  0.56296  0.69889  1.0000
  H   H2828     1.0  0.42661  0.53808  0.68443  1.0000
  O   O6275     1.0  0.22070  0.69333  0.07184  1.0000
  H   H2829     1.0  0.20985  0.69501  0.08867  1.0000
  H   H2830     1.0  0.22480  0.67633  0.07127  1.0000
  O   O6276     1.0  0.24940  0.65712  0.32726  1.0000
  H   H2831     1.0  0.25826  0.64406  0.33675  1.0000
  H   H2832     1.0  0.23397  0.65870  0.33822  1.0000
  O   O6277     1.0  0.21844  0.62148  0.14289  1.0000
  H   H2833     1.0  0.22109  0.63196  0.12626  1.0000
  H   H2834     1.0  0.22988  0.62744  0.15763  1.0000
  O   O6278     1.0  0.26987  0.59971  0.15421  1.0000
  H   H2835     1.0  0.26045  0.58531  0.15891  1.0000
  H   H2836     1.0  0.26327  0.61191  0.16723  1.0000
  O   O6279     1.0  0.32160  0.59794  0.30521  1.0000
  H   H2837     1.0  0.31128  0.61221  0.30709  1.0000
  H   H2838     1.0  0.31900  0.58922  0.32328  1.0000
  O   O6280     1.0  0.35205  0.60664  0.35458  1.0000
  H   H2839     1.0  0.33529  0.60000  0.35537  1.0000
  H   H2840     1.0  0.36266  0.59396  0.36219  1.0000
  O   O6281     1.0  0.29166  0.53650  0.43689  1.0000
  H   H2841     1.0  0.28709  0.54860  0.42260  1.0000
  H   H2842     1.0  0.28926  0.54437  0.45556  1.0000
  O   O6282     1.0  0.26359  0.58332  0.46883  1.0000
  H   H2843     1.0  0.26520  0.59979  0.47558  1.0000
  H   H2844     1.0  0.27464  0.57417  0.48141  1.0000
  O   O6283     1.0  0.27400  0.53938  0.24412  1.0000
  H   H2845     1.0  0.28905  0.54912  0.24456  1.0000
  H   H2846     1.0  0.26147  0.54918  0.25375  1.0000
  O   O6284     1.0  0.26349  0.58231  0.32632  1.0000
  H   H2847     1.0  0.27776  0.58878  0.33676  1.0000
  H   H2848     1.0  0.26487  0.56502  0.32874  1.0000
  O   O6285     1.0  0.23731  0.56846  0.27250  1.0000
  H   H2849     1.0  0.23811  0.57256  0.25197  1.0000
  H   H2850     1.0  0.24897  0.57942  0.28179  1.0000
  O   O6286     1.0  0.27319  0.60599  0.27701  1.0000
  H   H2851     1.0  0.26813  0.59583  0.29316  1.0000
  H   H2852     1.0  0.26481  0.59915  0.26018  1.0000
  O   O6287     1.0  0.19128  0.59351  0.40715  1.0000
  H   H2853     1.0  0.20037  0.59157  0.38900  1.0000
  H   H2854     1.0  0.19868  0.60761  0.41615  1.0000
  O   O6288     1.0  0.22383  0.59950  0.36175  1.0000
  H   H2855     1.0  0.23670  0.59310  0.34902  1.0000
  H   H2856     1.0  0.20843  0.59236  0.35467  1.0000
  O   O6289     1.0  0.25220  0.61265  0.60101  1.0000
  H   H2857     1.0  0.25112  0.62776  0.59050  1.0000
  H   H2858     1.0  0.26929  0.60733  0.59806  1.0000
  O   O6290     1.0  0.33065  0.59045  0.64267  1.0000
  H   H2859     1.0  0.31295  0.59063  0.63806  1.0000
  H   H2860     1.0  0.33857  0.58410  0.62527  1.0000
  O   O6291     1.0  0.38851  0.57666  0.60608  1.0000
  H   H2861     1.0  0.38985  0.57760  0.62714  1.0000
  H   H2862     1.0  0.40184  0.58692  0.59892  1.0000
  O   O6292     1.0  0.39672  0.52036  0.61787  1.0000
  H   H2863     1.0  0.40832  0.51548  0.63301  1.0000
  H   H2864     1.0  0.38456  0.53036  0.62785  1.0000
  O   O6293     1.0  0.36070  0.54973  0.64607  1.0000
  H   H2865     1.0  0.37312  0.55554  0.63236  1.0000
  H   H2866     1.0  0.34846  0.56258  0.64718  1.0000
  O   O6294     1.0  0.42673  0.54831  0.51648  1.0000
  H   H2867     1.0  0.43132  0.54137  0.53513  1.0000
  H   H2868     1.0  0.41555  0.56145  0.52138  1.0000
  O   O6295     1.0  0.43305  0.53651  0.57186  1.0000
  H   H2869     1.0  0.43375  0.55369  0.56818  1.0000
  H   H2870     1.0  0.43884  0.53475  0.59179  1.0000
  O   O6296     1.0  0.36665  0.61504  0.56299  1.0000
  H   H2871     1.0  0.37483  0.60148  0.55369  1.0000
  H   H2872     1.0  0.34972  0.60952  0.56661  1.0000
  O   O6297     1.0  0.31946  0.63865  0.53008  1.0000
  H   H2873     1.0  0.30313  0.63169  0.52637  1.0000
  H   H2874     1.0  0.32467  0.63163  0.54846  1.0000
  O   O6298     1.0  0.33477  0.60080  0.48975  1.0000
  H   H2875     1.0  0.32317  0.60725  0.47549  1.0000
  H   H2876     1.0  0.32432  0.59617  0.50610  1.0000
  O   O6299     1.0  0.25912  0.63551  0.47715  1.0000
  H   H2877     1.0  0.25602  0.63548  0.45631  1.0000
  H   H2878     1.0  0.27611  0.64140  0.47909  1.0000
  O   O6300     1.0  0.98578  0.52178  0.94362  1.0000
  H   H2879     1.0  0.99769  0.52586  0.95878  1.0000
  H   H2880     1.0  0.99189  0.53007  0.92643  1.0000
  O   O6301     1.0  0.16621  0.53338  0.96435  1.0000
  H   H2881     1.0  0.14910  0.53140  0.97096  1.0000
  H   H2882     1.0  0.16895  0.55063  0.96461  1.0000
  O   O6302     1.0  0.07947  0.57731  0.98534  1.0000
  H   H2883     1.0  0.08844  0.56261  0.98990  1.0000
  H   H2884     1.0  0.08610  0.58229  0.96661  1.0000
  O   O6303     1.0  0.07887  0.74024  0.00087  1.0000
  H   H2885     1.0  0.09357  0.74973  0.99624  1.0000
  H   H2886     1.0  0.08382  0.73063  0.01756  1.0000
  O   O6304     1.0  0.06229  0.68602  0.99166  1.0000
  H   H2887     1.0  0.07870  0.67874  0.98985  1.0000
  H   H2888     1.0  0.06232  0.69331  0.01087  1.0000
  O   O6305     1.0  0.08159  0.62680  0.96027  1.0000
  H   H2889     1.0  0.09899  0.62473  0.95483  1.0000
  H   H2890     1.0  0.08212  0.63103  0.98078  1.0000
  O   O6306     1.0  0.07847  0.63901  0.01822  1.0000
  H   H2891     1.0  0.09252  0.63515  0.03075  1.0000
  H   H2892     1.0  0.08515  0.65042  0.00424  1.0000
  O   O6307     1.0  0.16976  0.60729  0.03441  1.0000
  H   H2893     1.0  0.18390  0.59886  0.02599  1.0000
  H   H2894     1.0  0.15526  0.60024  0.02500  1.0000
  O   O6308     1.0  0.02530  0.52940  0.24533  1.0000
  H   H2895     1.0  0.01399  0.54281  0.24842  1.0000
  H   H2896     1.0  0.02491  0.52054  0.26354  1.0000
  O   O6309     1.0  0.99211  0.56471  0.26217  1.0000
  H   H2897     1.0  0.98248  0.55190  0.25322  1.0000
  H   H2898     1.0  0.99557  0.55895  0.28172  1.0000
  O   O6310     1.0  0.07275  0.56385  0.34687  1.0000
  H   H2899     1.0  0.05630  0.55658  0.34547  1.0000
  H   H2900     1.0  0.08370  0.55278  0.33665  1.0000
  O   O6311     1.0  0.15583  0.50286  0.24635  1.0000
  H   H2901     1.0  0.15232  0.51627  0.23345  1.0000
  H   H2902     1.0  0.16871  0.50882  0.25938  1.0000
  O   O6312     1.0  0.11659  0.53173  0.23914  1.0000
  H   H2903     1.0  0.10968  0.54021  0.25578  1.0000
  H   H2904     1.0  0.13044  0.52256  0.24708  1.0000
  O   O6313     1.0  0.05707  0.49718  0.35580  1.0000
  H   H2905     1.0  0.07428  0.50164  0.35976  1.0000
  H   H2906     1.0  0.04924  0.51197  0.34925  1.0000
  O   O6314     1.0  0.15927  0.56831  0.09993  1.0000
  H   H2907     1.0  0.17443  0.57185  0.08913  1.0000
  H   H2908     1.0  0.14587  0.57107  0.08608  1.0000
  O   O6315     1.0  0.21422  0.51927  0.22227  1.0000
  H   H2909     1.0  0.20847  0.53008  0.20708  1.0000
  H   H2910     1.0  0.20500  0.52416  0.23949  1.0000
  O   O6316     1.0  0.16890  0.59419  0.14882  1.0000
  H   H2911     1.0  0.16057  0.58807  0.13156  1.0000
  H   H2912     1.0  0.18446  0.58526  0.14976  1.0000
  O   O6317     1.0  0.02334  0.53615  0.98538  1.0000
  H   H2913     1.0  0.04095  0.54032  0.98594  1.0000
  H   H2914     1.0  0.02274  0.51957  0.99197  1.0000
  O   O6318     1.0  0.13130  0.58039  0.99999  1.0000
  H   H2915     1.0  0.12376  0.56492  0.99569  1.0000
  H   H2916     1.0  0.14578  0.58120  0.98729  1.0000
  O   O6319     1.0  0.11014  0.56905  0.08645  1.0000
  H   H2917     1.0  0.10157  0.58441  0.08544  1.0000
  H   H2918     1.0  0.10187  0.55915  0.07194  1.0000
  O   O6320     1.0  0.08128  0.55117  0.04497  1.0000
  H   H2919     1.0  0.07859  0.54194  0.02730  1.0000
  H   H2920     1.0  0.06818  0.56324  0.04477  1.0000
  O   O6321     1.0  0.17374  0.16240  0.56916  1.0000
  H   H2921     1.0  0.15877  0.16728  0.57954  1.0000
  H   H2922     1.0  0.17638  0.17500  0.55485  1.0000
  O   O6322     1.0  0.20671  0.95675  0.23431  1.0000
  H   H2923     1.0  0.19103  0.95324  0.24405  1.0000
  H   H2924     1.0  0.21641  0.94209  0.23626  1.0000
  O   O6323     1.0  0.95528  0.74056  0.82752  1.0000
  H   H2925     1.0  0.96411  0.74149  0.84596  1.0000
  H   H2926     1.0  0.94768  0.72471  0.82755  1.0000
  O   O6324     1.0  0.02566  0.73248  0.83814  1.0000
  H   H2927     1.0  0.02037  0.73391  0.81799  1.0000
  H   H2928     1.0  0.01080  0.73620  0.84939  1.0000
  O   O6325     1.0  0.18297  0.84399  0.20731  1.0000
  H   H2929     1.0  0.16527  0.84763  0.20596  1.0000
  H   H2930     1.0  0.19069  0.85913  0.21277  1.0000
  O   O6326     1.0  0.21037  0.82112  0.24712  1.0000
  H   H2931     1.0  0.20387  0.83412  0.23522  1.0000
  H   H2932     1.0  0.20115  0.80703  0.24079  1.0000
  O   O6327     1.0  0.31674  0.10919  0.43483  1.0000
  H   H2933     1.0  0.33184  0.10928  0.44655  1.0000
  H   H2934     1.0  0.30338  0.10628  0.44869  1.0000
  O   O6328     1.0  0.32072  0.23079  0.83233  1.0000
  H   H2935     1.0  0.32960  0.24599  0.83154  1.0000
  H   H2936     1.0  0.30366  0.23481  0.82703  1.0000
  O   O6329     1.0  0.24210  0.27808  0.78466  1.0000
  H   H2937     1.0  0.23375  0.26306  0.78005  1.0000
  H   H2938     1.0  0.23021  0.29044  0.77911  1.0000
  O   O6330     1.0  0.27738  0.25604  0.81578  1.0000
  H   H2939     1.0  0.26644  0.26334  0.80141  1.0000
  H   H2940     1.0  0.26900  0.25871  0.83425  1.0000
  O   O6331     1.0  0.17542  0.15266  0.73659  1.0000
  H   H2941     1.0  0.17773  0.13567  0.74059  1.0000
  H   H2942     1.0  0.18129  0.15471  0.71674  1.0000
  O   O6332     1.0  0.28132  0.10226  0.93212  1.0000
  H   H2943     1.0  0.28046  0.10953  0.91292  1.0000
  H   H2944     1.0  0.26432  0.10305  0.93943  1.0000
  O   O6333     1.0  0.42297  0.25958  0.43657  1.0000
  H   H2945     1.0  0.42768  0.27450  0.44607  1.0000
  H   H2946     1.0  0.40484  0.25948  0.43722  1.0000
  O   O6334     1.0  0.36979  0.26142  0.43987  1.0000
  H   H2947     1.0  0.37065  0.24401  0.43872  1.0000
  H   H2948     1.0  0.35258  0.26524  0.43504  1.0000
  O   O6335     1.0  0.26861  0.20905  0.45507  1.0000
  H   H2949     1.0  0.25870  0.19897  0.46790  1.0000
  H   H2950     1.0  0.28464  0.21050  0.46482  1.0000
  O   O6336     1.0  0.29328  0.23743  0.36954  1.0000
  H   H2951     1.0  0.30668  0.24905  0.36736  1.0000
  H   H2952     1.0  0.27913  0.24470  0.35966  1.0000
  O   O6337     1.0  0.26271  0.20566  0.39518  1.0000
  H   H2953     1.0  0.27374  0.21713  0.38577  1.0000
  H   H2954     1.0  0.26576  0.20784  0.41586  1.0000
  O   O6338     1.0  0.23558  0.08594  0.48517  1.0000
  H   H2955     1.0  0.24892  0.07511  0.49094  1.0000
  H   H2956     1.0  0.23871  0.10055  0.49615  1.0000
  O   O6339     1.0  0.16983  0.16806  0.92644  1.0000
  H   H2957     1.0  0.18178  0.16478  0.94185  1.0000
  H   H2958     1.0  0.15464  0.16002  0.93266  1.0000
  O   O6340     1.0  0.13342  0.15154  0.89307  1.0000
  H   H2959     1.0  0.13923  0.13559  0.88778  1.0000
  H   H2960     1.0  0.14656  0.15798  0.90538  1.0000
  O   O6341     1.0  0.17041  0.07921  0.96072  1.0000
  H   H2961     1.0  0.17792  0.08941  0.97548  1.0000
  H   H2962     1.0  0.15925  0.06871  0.97149  1.0000
  O   O6342     1.0  0.22967  0.10988  0.94023  1.0000
  H   H2963     1.0  0.23083  0.12030  0.95714  1.0000
  H   H2964     1.0  0.21784  0.11788  0.92747  1.0000
  O   O6343     1.0  0.21831  0.17189  0.90486  1.0000
  H   H2965     1.0  0.21031  0.15648  0.90148  1.0000
  H   H2966     1.0  0.22349  0.17133  0.92511  1.0000
  O   O6344     1.0  0.30397  0.21628  0.75687  1.0000
  H   H2967     1.0  0.29089  0.20425  0.75529  1.0000
  H   H2968     1.0  0.29873  0.22908  0.74385  1.0000
  O   O6345     1.0  0.18832  0.20633  0.69621  1.0000
  H   H2969     1.0  0.17791  0.20648  0.71353  1.0000
  H   H2970     1.0  0.18696  0.19002  0.68883  1.0000
  O   O6346     1.0  0.28015  0.17143  0.77014  1.0000
  H   H2971     1.0  0.27135  0.18491  0.77881  1.0000
  H   H2972     1.0  0.27055  0.16754  0.75283  1.0000
  O   O6347     1.0  0.21474  0.19154  0.84552  1.0000
  H   H2973     1.0  0.21579  0.19273  0.82446  1.0000
  H   H2974     1.0  0.20118  0.20228  0.85081  1.0000
  O   O6348     1.0  0.19502  0.19074  0.52170  1.0000
  H   H2975     1.0  0.20778  0.18930  0.53663  1.0000
  H   H2976     1.0  0.20396  0.18852  0.50350  1.0000
  O   O6349     1.0  0.23601  0.18539  0.55299  1.0000
  H   H2977     1.0  0.25051  0.17529  0.54956  1.0000
  H   H2978     1.0  0.23883  0.19949  0.54096  1.0000
  O   O6350     1.0  0.23061  0.18741  0.72478  1.0000
  H   H2979     1.0  0.24044  0.17288  0.72721  1.0000
  H   H2980     1.0  0.21906  0.18729  0.74109  1.0000
  O   O6351     1.0  0.25250  0.14202  0.59499  1.0000
  H   H2981     1.0  0.25644  0.14745  0.57543  1.0000
  H   H2982     1.0  0.23439  0.14251  0.59596  1.0000
  O   O6352     1.0  0.20655  0.13817  0.61530  1.0000
  H   H2983     1.0  0.20024  0.12744  0.60034  1.0000
  H   H2984     1.0  0.19212  0.14164  0.62741  1.0000
  O   O6353     1.0  0.24155  0.10869  0.73497  1.0000
  H   H2985     1.0  0.24802  0.12474  0.73144  1.0000
  H   H2986     1.0  0.22942  0.11078  0.75049  1.0000
  O   O6354     1.0  0.25002  0.16640  0.66657  1.0000
  H   H2987     1.0  0.25368  0.16077  0.68613  1.0000
  H   H2988     1.0  0.23196  0.16795  0.66609  1.0000
  O   O6355     1.0  0.35307  0.19012  0.79876  1.0000
  H   H2989     1.0  0.35749  0.18112  0.78139  1.0000
  H   H2990     1.0  0.34377  0.17878  0.81062  1.0000
  O   O6356     1.0  0.35011  0.15701  0.69613  1.0000
  H   H2991     1.0  0.35846  0.15879  0.71478  1.0000
  H   H2992     1.0  0.33249  0.15898  0.70056  1.0000
  O   O6357     1.0  0.13036  0.20078  0.87466  1.0000
  H   H2993     1.0  0.13084  0.18409  0.88082  1.0000
  H   H2994     1.0  0.14767  0.20596  0.87524  1.0000
  O   O6358     1.0  0.15501  0.13374  0.80635  1.0000
  H   H2995     1.0  0.14171  0.12720  0.79435  1.0000
  H   H2996     1.0  0.14928  0.14975  0.81151  1.0000
  O   O6359     1.0  0.15834  0.17891  0.83324  1.0000
  H   H2997     1.0  0.14423  0.16842  0.82934  1.0000
  H   H2998     1.0  0.15258  0.18944  0.84871  1.0000
  O   O6360     1.0  0.11116  0.15993  0.83875  1.0000
  H   H2999     1.0  0.12235  0.15676  0.85494  1.0000
  H   H3000     1.0  0.09479  0.16152  0.84765  1.0000
  O   O6361     1.0  0.25168  0.86613  0.23134  1.0000
  H   H3001     1.0  0.23826  0.87399  0.24191  1.0000
  H   H3002     1.0  0.26024  0.87911  0.22133  1.0000
  O   O6362     1.0  0.26784  0.88326  0.16494  1.0000
  H   H3003     1.0  0.26301  0.89301  0.18155  1.0000
  H   H3004     1.0  0.25256  0.87519  0.15911  1.0000
  O   O6363     1.0  0.32098  0.59404  0.18289  1.0000
  H   H3005     1.0  0.31051  0.58248  0.17280  1.0000
  H   H3006     1.0  0.33735  0.58655  0.18351  1.0000
  O   O6364     1.0  0.39843  0.41338  0.19311  1.0000
  H   H3007     1.0  0.40274  0.39710  0.18738  1.0000
  H   H3008     1.0  0.38031  0.41341  0.19403  1.0000
  O   O6365     1.0  0.27822  0.52966  0.08449  1.0000
  H   H3009     1.0  0.28985  0.52191  0.09773  1.0000
  H   H3010     1.0  0.27849  0.51969  0.06714  1.0000
  O   O6366     1.0  0.28594  0.50170  0.19327  1.0000
  H   H3011     1.0  0.28221  0.49344  0.21138  1.0000
  H   H3012     1.0  0.29688  0.51482  0.19892  1.0000
  O   O6367     1.0  0.26515  0.49872  0.13881  1.0000
  H   H3013     1.0  0.26882  0.49939  0.15950  1.0000
  H   H3014     1.0  0.28131  0.50034  0.12942  1.0000
  O   O6368     1.0  0.33256  0.48057  0.22189  1.0000
  H   H3015     1.0  0.32204  0.46706  0.21650  1.0000
  H   H3016     1.0  0.34098  0.48502  0.20396  1.0000
  O   O6369     1.0  0.26722  0.49522  0.30349  1.0000
  H   H3017     1.0  0.25635  0.50787  0.31069  1.0000
  H   H3018     1.0  0.25598  0.48379  0.29434  1.0000
  O   O6370     1.0  0.30137  0.44293  0.21440  1.0000
  H   H3019     1.0  0.29150  0.45413  0.22583  1.0000
  H   H3020     1.0  0.31397  0.43704  0.22783  1.0000
  O   O6371     1.0  0.36405  0.56352  0.17812  1.0000
  H   H3021     1.0  0.37570  0.57670  0.17534  1.0000
  H   H3022     1.0  0.36673  0.55841  0.19810  1.0000
  O   O6372     1.0  0.46676  0.43048  0.27680  1.0000
  H   H3023     1.0  0.45206  0.43205  0.26455  1.0000
  H   H3024     1.0  0.46728  0.44533  0.28789  1.0000
  O   O6373     1.0  0.41657  0.49398  0.23527  1.0000
  H   H3025     1.0  0.40695  0.48358  0.24802  1.0000
  H   H3026     1.0  0.40496  0.50656  0.22963  1.0000
  O   O6374     1.0  0.46386  0.50942  0.25159  1.0000
  H   H3027     1.0  0.45780  0.50267  0.26977  1.0000
  H   H3028     1.0  0.48106  0.50398  0.25025  1.0000
  O   O6375     1.0  0.46937  0.47238  0.30912  1.0000
  H   H3029     1.0  0.48644  0.47631  0.31448  1.0000
  H   H3030     1.0  0.45923  0.47967  0.32426  1.0000
  O   O6376     1.0  0.42983  0.49992  0.29564  1.0000
  H   H3031     1.0  0.44526  0.49184  0.30092  1.0000
  H   H3032     1.0  0.43374  0.51692  0.29709  1.0000
  O   O6377     1.0  0.29436  0.10601  0.59164  1.0000
  H   H3033     1.0  0.29082  0.10458  0.61231  1.0000
  H   H3034     1.0  0.31148  0.11174  0.59079  1.0000
  O   O6378     1.0  0.38427  0.16351  0.59671  1.0000
  H   H3035     1.0  0.40039  0.15628  0.60088  1.0000
  H   H3036     1.0  0.37220  0.15237  0.60489  1.0000
  O   O6379     1.0  0.78421  0.94635  0.89106  1.0000
  H   H3037     1.0  0.78329  0.96284  0.89790  1.0000
  H   H3038     1.0  0.80024  0.94057  0.89806  1.0000
  O   O6380     1.0  0.82354  0.94891  0.01236  1.0000
  H   H3039     1.0  0.80697  0.95601  0.01233  1.0000
  H   H3040     1.0  0.82060  0.93181  0.01483  1.0000
  O   O6381     1.0  0.84135  0.91658  0.96086  1.0000
  H   H3041     1.0  0.83342  0.93009  0.95117  1.0000
  H   H3042     1.0  0.83429  0.91661  0.98034  1.0000
  O   O6382     1.0  0.85524  0.11117  0.91843  1.0000
  H   H3043     1.0  0.84133  0.10993  0.93192  1.0000
  H   H3044     1.0  0.86878  0.10262  0.92794  1.0000
  O   O6383     1.0  0.89571  0.08841  0.94036  1.0000
  H   H3045     1.0  0.88316  0.07719  0.94732  1.0000
  H   H3046     1.0  0.89707  0.08506  0.91967  1.0000
  O   O6384     1.0  0.68875  0.11130  0.39527  1.0000
  H   H3047     1.0  0.68931  0.09780  0.38188  1.0000
  H   H3048     1.0  0.67935  0.10538  0.41187  1.0000
  O   O6385     1.0  0.66340  0.10622  0.44978  1.0000
  H   H3049     1.0  0.64682  0.11161  0.45532  1.0000
  H   H3050     1.0  0.66426  0.08973  0.45663  1.0000
  O   O6386     1.0  0.75711  0.06872  0.24841  1.0000
  H   H3051     1.0  0.74707  0.07035  0.26591  1.0000
  H   H3052     1.0  0.76943  0.08148  0.24987  1.0000
  O   O6387     1.0  0.62616  0.14585  0.46257  1.0000
  H   H3053     1.0  0.61254  0.15348  0.45210  1.0000
  H   H3054     1.0  0.63008  0.15696  0.47822  1.0000
  O   O6388     1.0  0.67464  0.20509  0.42656  1.0000
  H   H3055     1.0  0.67574  0.19013  0.41573  1.0000
  H   H3056     1.0  0.65810  0.20479  0.43523  1.0000
  O   O6389     1.0  0.67345  0.12978  0.28344  1.0000
  H   H3057     1.0  0.68511  0.11789  0.29084  1.0000
  H   H3058     1.0  0.67803  0.14456  0.29334  1.0000
  O   O6390     1.0  0.71031  0.13862  0.34487  1.0000
  H   H3059     1.0  0.71388  0.15520  0.35002  1.0000
  H   H3060     1.0  0.69223  0.13794  0.34338  1.0000
  O   O6391     1.0  0.65998  0.10864  0.33939  1.0000
  H   H3061     1.0  0.66387  0.12543  0.34300  1.0000
  H   H3062     1.0  0.67535  0.10014  0.34386  1.0000
  O   O6392     1.0  0.74648  0.07088  0.34640  1.0000
  H   H3063     1.0  0.72997  0.07759  0.34966  1.0000
  H   H3064     1.0  0.74335  0.05527  0.33766  1.0000
  O   O6393     1.0  0.76968  0.03772  0.38229  1.0000
  H   H3065     1.0  0.76316  0.04536  0.36487  1.0000
  H   H3066     1.0  0.77713  0.02287  0.37537  1.0000
  O   O6394     1.0  0.68494  0.02472  0.26357  1.0000
  H   H3067     1.0  0.67833  0.03114  0.24548  1.0000
  H   H3068     1.0  0.69720  0.03651  0.26981  1.0000
  O   O6395     1.0  0.85330  0.30595  0.36010  1.0000
  H   H3069     1.0  0.84523  0.29765  0.34405  1.0000
  H   H3070     1.0  0.84717  0.32235  0.35883  1.0000
  O   O6396     1.0  0.90380  0.35247  0.36675  1.0000
  H   H3071     1.0  0.88566  0.35256  0.36634  1.0000
  H   H3072     1.0  0.90812  0.36231  0.38347  1.0000
  O   O6397     1.0  0.87336  0.33868  0.32411  1.0000
  H   H3073     1.0  0.88559  0.34570  0.33721  1.0000
  H   H3074     1.0  0.86511  0.32641  0.33567  1.0000
  O   O6398     1.0  0.84108  0.20175  0.29853  1.0000
  H   H3075     1.0  0.82961  0.20904  0.28474  1.0000
  H   H3076     1.0  0.83036  0.19437  0.31305  1.0000
  O   O6399     1.0  0.81940  0.22548  0.25324  1.0000
  H   H3077     1.0  0.80500  0.21719  0.24521  1.0000
  H   H3078     1.0  0.81240  0.23681  0.26710  1.0000
  O   O6400     1.0  0.79248  0.25637  0.29184  1.0000
  H   H3079     1.0  0.79993  0.26559  0.27613  1.0000
  H   H3080     1.0  0.78478  0.24270  0.28223  1.0000
  O   O6401     1.0  0.74861  0.20340  0.34080  1.0000
  H   H3081     1.0  0.76467  0.19536  0.34214  1.0000
  H   H3082     1.0  0.74839  0.21029  0.32137  1.0000
  O   O6402     1.0  0.72346  0.18834  0.27153  1.0000
  H   H3083     1.0  0.71112  0.18524  0.28657  1.0000
  H   H3084     1.0  0.73658  0.19722  0.28139  1.0000
  O   O6403     1.0  0.99799  0.90163  0.41791  1.0000
  H   H3085     1.0  0.99730  0.88953  0.40269  1.0000
  H   H3086     1.0  0.98636  0.91397  0.41160  1.0000
  O   O6404     1.0  0.03894  0.92977  0.41612  1.0000
  H   H3087     1.0  0.02654  0.91811  0.40989  1.0000
  H   H3088     1.0  0.03342  0.93476  0.43534  1.0000
  O   O6405     1.0  0.02076  0.98543  0.39712  1.0000
  H   H3089     1.0  0.03734  0.99187  0.40070  1.0000
  H   H3090     1.0  0.01587  0.97823  0.41552  1.0000
  O   O6406     1.0  0.10484  0.99265  0.46386  1.0000
  H   H3091     1.0  0.10605  0.97693  0.45477  1.0000
  H   H3092     1.0  0.08903  0.99908  0.45702  1.0000
  O   O6407     1.0  0.97840  0.99456  0.43288  1.0000
  H   H3093     1.0  0.96825  0.00902  0.43341  1.0000
  H   H3094     1.0  0.97930  0.99037  0.41238  1.0000
  O   O6408     1.0  0.98838  0.84409  0.20122  1.0000
  H   H3095     1.0  0.99702  0.85917  0.19774  1.0000
  H   H3096     1.0  0.97364  0.84858  0.21228  1.0000
  O   O6409     1.0  0.93629  0.87208  0.17288  1.0000
  H   H3097     1.0  0.92150  0.87533  0.16129  1.0000
  H   H3098     1.0  0.94852  0.88370  0.16613  1.0000
  O   O6410     1.0  0.89991  0.86467  0.25592  1.0000
  H   H3099     1.0  0.90491  0.87964  0.26510  1.0000
  H   H3100     1.0  0.88588  0.86904  0.24361  1.0000
  O   O6411     1.0  0.94589  0.85822  0.23330  1.0000
  H   H3101     1.0  0.95628  0.86919  0.24442  1.0000
  H   H3102     1.0  0.92923  0.86037  0.24126  1.0000
  O   O6412     1.0  0.05796  0.88100  0.25785  1.0000
  H   H3103     1.0  0.04002  0.88331  0.25644  1.0000
  H   H3104     1.0  0.06320  0.89197  0.27312  1.0000
  O   O6413     1.0  0.04553  0.86161  0.35781  1.0000
  H   H3105     1.0  0.06081  0.85663  0.34813  1.0000
  H   H3106     1.0  0.03996  0.87557  0.34690  1.0000
  O   O6414     1.0  0.72362  0.89389  0.19360  1.0000
  H   H3107     1.0  0.73167  0.90598  0.18158  1.0000
  H   H3108     1.0  0.70916  0.90200  0.20175  1.0000
  O   O6415     1.0  0.77516  0.92166  0.17934  1.0000
  H   H3109     1.0  0.75795  0.92601  0.17524  1.0000
  H   H3110     1.0  0.78278  0.93644  0.18624  1.0000
  O   O6416     1.0  0.76903  0.94285  0.25684  1.0000
  H   H3111     1.0  0.76044  0.94824  0.23940  1.0000
  H   H3112     1.0  0.75807  0.93074  0.26511  1.0000
  O   O6417     1.0  0.85578  0.04584  0.19603  1.0000
  H   H3113     1.0  0.84102  0.04167  0.18482  1.0000
  H   H3114     1.0  0.86749  0.03289  0.19216  1.0000
  O   O6418     1.0  0.85762  0.94362  0.32285  1.0000
  H   H3115     1.0  0.85728  0.93258  0.33922  1.0000
  H   H3116     1.0  0.84023  0.94785  0.31970  1.0000
  O   O6419     1.0  0.79632  0.99208  0.39043  1.0000
  H   H3117     1.0  0.79976  0.97520  0.39403  1.0000
  H   H3118     1.0  0.80151  0.99467  0.37041  1.0000
  O   O6420     1.0  0.80957  0.94521  0.38778  1.0000
  H   H3119     1.0  0.82721  0.94923  0.38720  1.0000
  H   H3120     1.0  0.80903  0.92803  0.38411  1.0000
  O   O6421     1.0  0.96108  0.93711  0.39367  1.0000
  H   H3121     1.0  0.97116  0.93306  0.37679  1.0000
  H   H3122     1.0  0.95331  0.92204  0.39931  1.0000
  O   O6422     1.0  0.89193  0.88376  0.39691  1.0000
  H   H3123     1.0  0.90962  0.88249  0.40133  1.0000
  H   H3124     1.0  0.88994  0.89989  0.38915  1.0000
  O   O6423     1.0  0.94164  0.89107  0.40440  1.0000
  H   H3125     1.0  0.93688  0.87984  0.38919  1.0000
  H   H3126     1.0  0.92739  0.90176  0.40625  1.0000
  O   O6424     1.0  0.96052  0.06881  0.33442  1.0000
  H   H3127     1.0  0.96651  0.05264  0.33827  1.0000
  H   H3128     1.0  0.96820  0.07319  0.31601  1.0000
  O   O6425     1.0  0.96935  0.98508  0.30064  1.0000
  H   H3129     1.0  0.97452  0.00113  0.30638  1.0000
  H   H3130     1.0  0.97722  0.97453  0.31477  1.0000
  O   O6426     1.0  0.92879  0.96759  0.32582  1.0000
  H   H3131     1.0  0.94407  0.97069  0.31506  1.0000
  H   H3132     1.0  0.92462  0.98293  0.33467  1.0000
  O   O6427     1.0  0.92326  0.01536  0.34760  1.0000
  H   H3133     1.0  0.92772  0.00821  0.36618  1.0000
  H   H3134     1.0  0.90832  0.00679  0.34160  1.0000
  O   O6428     1.0  0.86662  0.97349  0.22331  1.0000
  H   H3135     1.0  0.87181  0.97805  0.24280  1.0000
  H   H3136     1.0  0.87329  0.98604  0.21084  1.0000
  O   O6429     1.0  0.93981  0.94901  0.20288  1.0000
  H   H3137     1.0  0.93074  0.95642  0.18692  1.0000
  H   H3138     1.0  0.93357  0.95703  0.22019  1.0000
  O   O6430     1.0  0.92359  0.97016  0.25083  1.0000
  H   H3139     1.0  0.91988  0.98051  0.23436  1.0000
  H   H3140     1.0  0.93170  0.95622  0.24230  1.0000
  O   O6431     1.0  0.77762  0.91197  0.42272  1.0000
  H   H3141     1.0  0.78447  0.92765  0.41796  1.0000
  H   H3142     1.0  0.78510  0.90115  0.40860  1.0000
  O   O6432     1.0  0.74388  0.90947  0.50582  1.0000
  H   H3143     1.0  0.74512  0.89430  0.49547  1.0000
  H   H3144     1.0  0.72979  0.91760  0.49687  1.0000
  O   O6433     1.0  0.78747  0.89316  0.47685  1.0000
  H   H3145     1.0  0.77319  0.89796  0.48851  1.0000
  H   H3146     1.0  0.78411  0.89975  0.45767  1.0000
  O   O6434     1.0  0.73887  0.87572  0.35616  1.0000
  H   H3147     1.0  0.75556  0.87236  0.34894  1.0000
  H   H3148     1.0  0.73764  0.89313  0.35593  1.0000
  O   O6435     1.0  0.75386  0.92349  0.34741  1.0000
  H   H3149     1.0  0.76685  0.91242  0.34126  1.0000
  H   H3150     1.0  0.75935  0.93905  0.34028  1.0000
  O   O6436     1.0  0.74474  0.90380  0.29483  1.0000
  H   H3151     1.0  0.73314  0.91674  0.29052  1.0000
  H   H3152     1.0  0.75086  0.90738  0.31426  1.0000
  O   O6437     1.0  0.88905  0.08759  0.30820  1.0000
  H   H3153     1.0  0.89470  0.09719  0.29182  1.0000
  H   H3154     1.0  0.87096  0.08766  0.30662  1.0000
  O   O6438     1.0  0.80371  0.15997  0.21154  1.0000
  H   H3155     1.0  0.82161  0.15844  0.21444  1.0000
  H   H3156     1.0  0.80168  0.16076  0.19055  1.0000
  O   O6439     1.0  0.80417  0.12315  0.27889  1.0000
  H   H3157     1.0  0.79223  0.12154  0.29469  1.0000
  H   H3158     1.0  0.81729  0.11173  0.28357  1.0000
  O   O6440     1.0  0.86761  0.13898  0.31768  1.0000
  H   H3159     1.0  0.85232  0.13259  0.32603  1.0000
  H   H3160     1.0  0.86471  0.13878  0.29681  1.0000
  O   O6441     1.0  0.90565  0.14217  0.20515  1.0000
  H   H3161     1.0  0.89127  0.13221  0.20969  1.0000
  H   H3162     1.0  0.91539  0.14235  0.22299  1.0000
  O   O6442     1.0  0.91587  0.14066  0.33581  1.0000
  H   H3163     1.0  0.89971  0.13372  0.33115  1.0000
  H   H3164     1.0  0.91405  0.15763  0.33134  1.0000
  O   O6443     1.0  0.96191  0.12083  0.33071  1.0000
  H   H3165     1.0  0.96941  0.11575  0.31247  1.0000
  H   H3166     1.0  0.94563  0.12706  0.32522  1.0000
  O   O6444     1.0  0.65336  0.00422  0.85168  1.0000
  H   H3167     1.0  0.66980  0.01097  0.84808  1.0000
  H   H3168     1.0  0.65556  0.98702  0.84916  1.0000
  O   O6445     1.0  0.20916  0.04673  0.94087  1.0000
  H   H3169     1.0  0.19613  0.03460  0.94166  1.0000
  H   H3170     1.0  0.21170  0.05140  0.96103  1.0000
  O   O6446     1.0  0.63145  0.75929  0.75790  1.0000
  H   H3171     1.0  0.63060  0.76813  0.77610  1.0000
  H   H3172     1.0  0.61632  0.74967  0.75764  1.0000
  O   O6447     1.0  0.72158  0.73418  0.77590  1.0000
  H   H3173     1.0  0.72902  0.72031  0.76644  1.0000
  H   H3174     1.0  0.73296  0.73799  0.79171  1.0000
  O   O6448     1.0  0.69021  0.75572  0.81291  1.0000
  H   H3175     1.0  0.68387  0.76396  0.79580  1.0000
  H   H3176     1.0  0.70339  0.74539  0.80553  1.0000
  O   O6449     1.0  0.97836  0.57960  0.73332  1.0000
  H   H3177     1.0  0.97368  0.57711  0.75352  1.0000
  H   H3178     1.0  0.98657  0.56475  0.72767  1.0000
  O   O6450     1.0  0.02338  0.53921  0.83732  1.0000
  H   H3179     1.0  0.03324  0.54398  0.82054  1.0000
  H   H3180     1.0  0.01589  0.55406  0.84422  1.0000
  O   O6451     1.0  0.95469  0.59757  0.84717  1.0000
  H   H3181     1.0  0.94840  0.58242  0.85469  1.0000
  H   H3182     1.0  0.97263  0.59672  0.85016  1.0000
  O   O6452     1.0  0.96253  0.57633  0.79364  1.0000
  H   H3183     1.0  0.95937  0.58534  0.81137  1.0000
  H   H3184     1.0  0.96689  0.56031  0.80032  1.0000
  O   O6453     1.0  0.97443  0.53252  0.81255  1.0000
  H   H3185     1.0  0.99228  0.53302  0.81624  1.0000
  H   H3186     1.0  0.96695  0.53924  0.83001  1.0000
  O   O6454     1.0  0.96800  0.75293  0.94621  1.0000
  H   H3187     1.0  0.95071  0.74771  0.94519  1.0000
  H   H3188     1.0  0.97648  0.74015  0.95669  1.0000
  O   O6455     1.0  0.95588  0.61759  0.96111  1.0000
  H   H3189     1.0  0.94710  0.63042  0.95107  1.0000
  H   H3190     1.0  0.94827  0.60293  0.95384  1.0000
  O   O6456     1.0  0.96622  0.67161  0.97146  1.0000
  H   H3191     1.0  0.97062  0.66711  0.95168  1.0000
  H   H3192     1.0  0.97475  0.68679  0.97464  1.0000
  O   O6457     1.0  0.93178  0.65470  0.93345  1.0000
  H   H3193     1.0  0.92032  0.66764  0.93827  1.0000
  H   H3194     1.0  0.94633  0.65765  0.94556  1.0000
  O   O6458     1.0  0.93685  0.57025  0.94354  1.0000
  H   H3195     1.0  0.92947  0.55889  0.92998  1.0000
  H   H3196     1.0  0.95323  0.57368  0.93547  1.0000
  O   O6459     1.0  0.23706  0.85506  0.03797  1.0000
  H   H3197     1.0  0.24681  0.84095  0.04305  1.0000
  H   H3198     1.0  0.22710  0.85003  0.02138  1.0000
  O   O6460     1.0  0.26354  0.74346  0.00840  1.0000
  H   H3199     1.0  0.27720  0.73434  0.99995  1.0000
  H   H3200     1.0  0.27162  0.75668  0.01849  1.0000
  O   O6461     1.0  0.28648  0.77903  0.03542  1.0000
  H   H3201     1.0  0.28233  0.79569  0.03950  1.0000
  H   H3202     1.0  0.29810  0.77983  0.01921  1.0000
  O   O6462     1.0  0.12803  0.72230  0.91731  1.0000
  H   H3203     1.0  0.13550  0.72507  0.93628  1.0000
  H   H3204     1.0  0.14038  0.72815  0.90354  1.0000
  O   O6463     1.0  0.26548  0.68977  0.99595  1.0000
  H   H3205     1.0  0.27898  0.70118  0.99305  1.0000
  H   H3206     1.0  0.25058  0.69965  0.99742  1.0000
  O   O6464     1.0  0.26720  0.89583  0.06565  1.0000
  H   H3207     1.0  0.24983  0.89609  0.07174  1.0000
  H   H3208     1.0  0.27491  0.88368  0.07789  1.0000
  O   O6465     1.0  0.31234  0.76854  0.08882  1.0000
  H   H3209     1.0  0.30643  0.78215  0.10012  1.0000
  H   H3210     1.0  0.30447  0.77046  0.06991  1.0000
  O   O6466     1.0  0.35304  0.90545  0.08910  1.0000
  H   H3211     1.0  0.34538  0.89121  0.09746  1.0000
  H   H3212     1.0  0.34919  0.90449  0.06847  1.0000
  O   O6467     1.0  0.33938  0.89813  0.03147  1.0000
  H   H3213     1.0  0.34842  0.88398  0.03798  1.0000
  H   H3214     1.0  0.32274  0.89227  0.02693  1.0000
  O   O6468     1.0  0.38662  0.80537  0.08000  1.0000
  H   H3215     1.0  0.36960  0.81141  0.08019  1.0000
  H   H3216     1.0  0.38621  0.79194  0.06650  1.0000
  O   O6469     1.0  0.27624  0.85890  0.10818  1.0000
  H   H3217     1.0  0.29326  0.86452  0.10554  1.0000
  H   H3218     1.0  0.27777  0.84157  0.10993  1.0000
  O   O6470     1.0  0.28968  0.81110  0.11192  1.0000
  H   H3219     1.0  0.30352  0.81770  0.10083  1.0000
  H   H3220     1.0  0.27582  0.81081  0.09828  1.0000
  O   O6471     1.0  0.80268  0.64858  0.48007  1.0000
  H   H3221     1.0  0.79547  0.66090  0.49247  1.0000
  H   H3222     1.0  0.81545  0.64109  0.49204  1.0000
  O   O6472     1.0  0.19039  0.93678  0.08035  1.0000
  H   H3223     1.0  0.19427  0.95066  0.09236  1.0000
  H   H3224     1.0  0.17682  0.94212  0.06790  1.0000
  O   O6473     1.0  0.25818  0.94313  0.11451  1.0000
  H   H3225     1.0  0.26776  0.94680  0.09712  1.0000
  H   H3226     1.0  0.25310  0.95871  0.12198  1.0000
  O   O6474     1.0  0.23566  0.93966  0.05717  1.0000
  H   H3227     1.0  0.21821  0.93845  0.06275  1.0000
  H   H3228     1.0  0.24461  0.94091  0.07550  1.0000
  O   O6475     1.0  0.08753  0.84231  0.10790  1.0000
  H   H3229     1.0  0.08632  0.83333  0.12598  1.0000
  H   H3230     1.0  0.08713  0.83012  0.09278  1.0000
  O   O6476     1.0  0.07771  0.78476  0.11824  1.0000
  H   H3231     1.0  0.09553  0.78623  0.12176  1.0000
  H   H3232     1.0  0.07006  0.79519  0.13266  1.0000
  O   O6477     1.0  0.04249  0.79804  0.96655  1.0000
  H   H3233     1.0  0.04889  0.80202  0.98574  1.0000
  H   H3234     1.0  0.03572  0.78194  0.96868  1.0000
  O   O6478     1.0  0.94072  0.71583  0.74113  1.0000
  H   H3235     1.0  0.95497  0.72637  0.73828  1.0000
  H   H3236     1.0  0.93822  0.71558  0.76207  1.0000
  O   O6479     1.0  0.88141  0.69200  0.81008  1.0000
  H   H3237     1.0  0.89855  0.69421  0.80368  1.0000
  H   H3238     1.0  0.87611  0.70787  0.81635  1.0000
  O   O6480     1.0  0.12978  0.79222  0.90420  1.0000
  H   H3239     1.0  0.11531  0.79018  0.91671  1.0000
  H   H3240     1.0  0.13725  0.80723  0.91057  1.0000
