data_image0
_chemical_formula_structural       Ca1620
_chemical_formula_sum              "Ca1620"
_cell_length_a       52.7945
_cell_length_b       54.7943
_cell_length_c       45.1953
_cell_angle_alpha    90
_cell_angle_beta     90
_cell_angle_gamma    90

_space_group_name_H-M_alt    "P 1"
_space_group_IT_number       1

loop_
  _space_group_symop_operation_xyz
  'x, y, z'

loop_
  _atom_site_type_symbol
  _atom_site_label
  _atom_site_symmetry_multiplicity
  _atom_site_fract_x
  _atom_site_fract_y
  _atom_site_fract_z
  _atom_site_occupancy
  Ca  Ca1       1.0  0.81587  0.52785  0.47453  1.0000
  Ca  Ca2       1.0  0.07041  0.50657  0.70649  1.0000
  Ca  Ca3       1.0  0.28918  0.48917  0.93156  1.0000
  Ca  Ca4       1.0  0.76795  0.54699  0.93921  1.0000
  Ca  Ca5       1.0  0.40042  0.53742  0.22227  1.0000
  Ca  Ca6       1.0  0.11420  0.25582  0.68833  1.0000
  Ca  Ca7       1.0  0.51974  0.92223  0.56271  1.0000
  Ca  Ca8       1.0  0.95740  0.48543  0.56660  1.0000
  Ca  Ca9       1.0  0.77505  0.36328  0.92913  1.0000
  Ca  Ca10      1.0  0.83321  0.82710  0.15801  1.0000
  Ca  Ca11      1.0  0.84499  0.99401  0.06790  1.0000
  Ca  Ca12      1.0  0.57285  0.00098  0.97152  1.0000
  Ca  Ca13      1.0  0.56564  0.16746  0.95742  1.0000
  Ca  Ca14      1.0  0.11574  0.94821  0.77161  1.0000
  Ca  Ca15      1.0  0.50858  0.82861  0.06104  1.0000
  Ca  Ca16      1.0  0.91787  0.91982  0.13299  1.0000
  Ca  Ca17      1.0  0.51260  0.53080  0.68061  1.0000
  Ca  Ca18      1.0  0.29321  0.02549  0.43179  1.0000
  Ca  Ca19      1.0  0.72250  0.32466  0.44359  1.0000
  Ca  Ca20      1.0  0.44044  0.00665  0.78589  1.0000
  Ca  Ca21      1.0  0.45536  0.65790  0.77600  1.0000
  Ca  Ca22      1.0  0.99010  0.15545  0.66144  1.0000
  Ca  Ca23      1.0  0.86068  0.70298  0.54073  1.0000
  Ca  Ca24      1.0  0.84613  0.11830  0.94894  1.0000
  Ca  Ca25      1.0  0.58666  0.33579  0.27091  1.0000
  Ca  Ca26      1.0  0.13103  0.59151  0.08822  1.0000
  Ca  Ca27      1.0  0.05594  0.01082  0.94355  1.0000
  Ca  Ca28      1.0  0.49598  0.09072  0.77126  1.0000
  Ca  Ca29      1.0  0.26713  0.64059  0.30276  1.0000
  Ca  Ca30      1.0  0.45332  0.44971  0.16331  1.0000
  Ca  Ca31      1.0  0.25198  0.52944  0.97505  1.0000
  Ca  Ca32      1.0  0.83006  0.04988  0.44971  1.0000
  Ca  Ca33      1.0  0.85230  0.51368  0.39624  1.0000
  Ca  Ca34      1.0  0.59659  0.80477  0.29378  1.0000
  Ca  Ca35      1.0  0.30021  0.38040  0.78304  1.0000
  Ca  Ca36      1.0  0.79777  0.98753  0.33367  1.0000
  Ca  Ca37      1.0  0.20660  0.72009  0.24451  1.0000
  Ca  Ca38      1.0  0.88842  0.15622  0.34684  1.0000
  Ca  Ca39      1.0  0.04777  0.81472  0.29396  1.0000
  Ca  Ca40      1.0  0.12980  0.51576  0.95464  1.0000
  Ca  Ca41      1.0  0.94562  0.98986  0.24067  1.0000
  Ca  Ca42      1.0  0.41773  0.60593  0.18575  1.0000
  Ca  Ca43      1.0  0.27280  0.33898  0.24716  1.0000
  Ca  Ca44      1.0  0.54526  0.51616  0.94960  1.0000
  Ca  Ca45      1.0  0.77844  0.42237  0.00340  1.0000
  Ca  Ca46      1.0  0.83318  0.85982  0.28621  1.0000
  Ca  Ca47      1.0  0.89199  0.82702  0.27725  1.0000
  Ca  Ca48      1.0  0.78686  0.24767  0.30451  1.0000
  Ca  Ca49      1.0  0.15476  0.73223  0.50049  1.0000
  Ca  Ca50      1.0  0.33210  0.56211  0.87057  1.0000
  Ca  Ca51      1.0  0.67807  0.92334  0.61208  1.0000
  Ca  Ca52      1.0  0.85768  0.26804  0.42052  1.0000
  Ca  Ca53      1.0  0.39446  0.80948  0.50812  1.0000
  Ca  Ca54      1.0  0.68875  0.88901  0.06943  1.0000
  Ca  Ca55      1.0  0.23386  0.63787  0.57885  1.0000
  Ca  Ca56      1.0  0.95780  0.85391  0.28144  1.0000
  Ca  Ca57      1.0  0.93300  0.57672  0.40277  1.0000
  Ca  Ca58      1.0  0.41638  0.95815  0.88918  1.0000
  Ca  Ca59      1.0  0.63815  0.55335  0.00054  1.0000
  Ca  Ca60      1.0  0.06345  0.18051  0.80154  1.0000
  Ca  Ca61      1.0  0.18137  0.75822  0.85579  1.0000
  Ca  Ca62      1.0  0.39273  0.74669  0.45755  1.0000
  Ca  Ca63      1.0  0.58971  0.39728  0.49569  1.0000
  Ca  Ca64      1.0  0.03404  0.80159  0.02528  1.0000
  Ca  Ca65      1.0  0.91873  0.14635  0.43145  1.0000
  Ca  Ca66      1.0  0.96313  0.35755  0.36865  1.0000
  Ca  Ca67      1.0  0.42478  0.83628  0.78457  1.0000
  Ca  Ca68      1.0  0.78628  0.07198  0.32352  1.0000
  Ca  Ca69      1.0  0.87485  0.95116  0.47917  1.0000
  Ca  Ca70      1.0  0.93578  0.62583  0.01024  1.0000
  Ca  Ca71      1.0  0.75188  0.86944  0.91700  1.0000
  Ca  Ca72      1.0  0.59149  0.74145  0.41620  1.0000
  Ca  Ca73      1.0  0.94753  0.28523  0.21371  1.0000
  Ca  Ca74      1.0  0.22901  0.99324  0.01094  1.0000
  Ca  Ca75      1.0  0.51165  0.48203  0.63451  1.0000
  Ca  Ca76      1.0  0.82338  0.34532  0.38868  1.0000
  Ca  Ca77      1.0  0.40976  0.65648  0.43401  1.0000
  Ca  Ca78      1.0  0.64128  0.22816  0.20947  1.0000
  Ca  Ca79      1.0  0.53626  0.30663  0.46457  1.0000
  Ca  Ca80      1.0  0.44318  0.10893  0.83484  1.0000
  Ca  Ca81      1.0  0.92548  0.91479  0.76468  1.0000
  Ca  Ca82      1.0  0.51662  0.36918  0.55754  1.0000
  Ca  Ca83      1.0  0.58668  0.60305  0.84676  1.0000
  Ca  Ca84      1.0  0.56693  0.42725  0.97307  1.0000
  Ca  Ca85      1.0  0.33899  0.90700  0.49353  1.0000
  Ca  Ca86      1.0  0.67539  0.30186  0.83406  1.0000
  Ca  Ca87      1.0  0.21034  0.39959  0.61160  1.0000
  Ca  Ca88      1.0  0.32064  0.00123  0.50069  1.0000
  Ca  Ca89      1.0  0.48938  0.21575  0.45421  1.0000
  Ca  Ca90      1.0  0.29569  0.42904  0.55313  1.0000
  Ca  Ca91      1.0  0.38910  0.55558  0.36282  1.0000
  Ca  Ca92      1.0  0.23124  0.07773  0.19002  1.0000
  Ca  Ca93      1.0  0.50080  0.63031  0.44487  1.0000
  Ca  Ca94      1.0  0.31426  0.50743  0.03942  1.0000
  Ca  Ca95      1.0  0.08905  0.18912  0.59760  1.0000
  Ca  Ca96      1.0  0.44295  0.28396  0.26406  1.0000
  Ca  Ca97      1.0  0.99185  0.67658  0.63694  1.0000
  Ca  Ca98      1.0  0.12890  0.53045  0.60051  1.0000
  Ca  Ca99      1.0  0.24085  0.10076  0.60998  1.0000
  Ca  Ca100     1.0  0.13523  0.04105  0.86538  1.0000
  Ca  Ca101     1.0  0.48098  0.71014  0.83558  1.0000
  Ca  Ca102     1.0  0.90259  0.01518  0.72258  1.0000
  Ca  Ca103     1.0  0.54965  0.13641  0.74893  1.0000
  Ca  Ca104     1.0  0.51475  0.31504  0.35180  1.0000
  Ca  Ca105     1.0  0.00727  0.42699  0.48731  1.0000
  Ca  Ca106     1.0  0.86849  0.92940  0.80936  1.0000
  Ca  Ca107     1.0  0.61091  0.86732  0.04752  1.0000
  Ca  Ca108     1.0  0.32916  0.75054  0.21089  1.0000
  Ca  Ca109     1.0  0.97257  0.28795  0.37146  1.0000
  Ca  Ca110     1.0  0.69196  0.13953  0.09909  1.0000
  Ca  Ca111     1.0  0.68594  0.08538  0.55971  1.0000
  Ca  Ca112     1.0  0.27389  0.04692  0.82912  1.0000
  Ca  Ca113     1.0  0.53714  0.94038  0.48404  1.0000
  Ca  Ca114     1.0  0.62675  0.41647  0.85589  1.0000
  Ca  Ca115     1.0  0.67031  0.05287  0.32077  1.0000
  Ca  Ca116     1.0  0.39916  0.38641  0.82000  1.0000
  Ca  Ca117     1.0  0.20383  0.48762  0.93532  1.0000
  Ca  Ca118     1.0  0.39543  0.56336  0.50080  1.0000
  Ca  Ca119     1.0  0.40241  0.95191  0.97103  1.0000
  Ca  Ca120     1.0  0.14074  0.32000  0.76943  1.0000
  Ca  Ca121     1.0  0.58879  0.53493  0.87195  1.0000
  Ca  Ca122     1.0  0.02404  0.18516  0.05994  1.0000
  Ca  Ca123     1.0  0.18297  0.07770  0.72406  1.0000
  Ca  Ca124     1.0  0.42911  0.77807  0.27963  1.0000
  Ca  Ca125     1.0  0.35326  0.44720  0.05908  1.0000
  Ca  Ca126     1.0  0.55555  0.63795  0.78873  1.0000
  Ca  Ca127     1.0  0.39171  0.58656  0.98510  1.0000
  Ca  Ca128     1.0  0.21946  0.02732  0.53222  1.0000
  Ca  Ca129     1.0  0.47012  0.12982  0.22254  1.0000
  Ca  Ca130     1.0  0.36554  0.47283  0.56596  1.0000
  Ca  Ca131     1.0  0.10262  0.95388  0.92322  1.0000
  Ca  Ca132     1.0  0.06555  0.87934  0.32793  1.0000
  Ca  Ca133     1.0  0.58904  0.65873  0.33757  1.0000
  Ca  Ca134     1.0  0.11946  0.35650  0.64204  1.0000
  Ca  Ca135     1.0  0.14855  0.98020  0.08668  1.0000
  Ca  Ca136     1.0  0.00304  0.70179  0.06221  1.0000
  Ca  Ca137     1.0  0.73859  0.91541  0.16112  1.0000
  Ca  Ca138     1.0  0.44452  0.40244  0.05392  1.0000
  Ca  Ca139     1.0  0.08081  0.24215  0.89322  1.0000
  Ca  Ca140     1.0  0.38331  0.70815  0.20450  1.0000
  Ca  Ca141     1.0  0.20055  0.26195  0.09022  1.0000
  Ca  Ca142     1.0  0.87043  0.68354  0.68783  1.0000
  Ca  Ca143     1.0  0.94936  0.55746  0.50371  1.0000
  Ca  Ca144     1.0  0.89303  0.66576  0.79119  1.0000
  Ca  Ca145     1.0  0.45452  0.51283  0.34941  1.0000
  Ca  Ca146     1.0  0.89436  0.49158  0.33069  1.0000
  Ca  Ca147     1.0  0.23518  0.42678  0.21326  1.0000
  Ca  Ca148     1.0  0.09104  0.03723  0.31018  1.0000
  Ca  Ca149     1.0  0.21299  0.84784  0.13875  1.0000
  Ca  Ca150     1.0  0.40084  0.68146  0.71770  1.0000
  Ca  Ca151     1.0  0.23715  0.91838  0.05501  1.0000
  Ca  Ca152     1.0  0.17235  0.95153  0.53655  1.0000
  Ca  Ca153     1.0  0.87697  0.48474  0.69823  1.0000
  Ca  Ca154     1.0  0.54329  0.06386  0.51247  1.0000
  Ca  Ca155     1.0  0.37172  0.37821  0.47399  1.0000
  Ca  Ca156     1.0  0.03996  0.47564  0.44124  1.0000
  Ca  Ca157     1.0  0.11175  0.33092  0.25566  1.0000
  Ca  Ca158     1.0  0.70704  0.43481  0.50935  1.0000
  Ca  Ca159     1.0  0.32469  0.34104  0.43280  1.0000
  Ca  Ca160     1.0  0.30010  0.15195  0.30901  1.0000
  Ca  Ca161     1.0  0.24538  0.86549  0.98277  1.0000
  Ca  Ca162     1.0  0.25317  0.78347  0.02701  1.0000
  Ca  Ca163     1.0  0.16303  0.40981  0.00053  1.0000
  Ca  Ca164     1.0  0.09358  0.84425  0.04373  1.0000
  Ca  Ca165     1.0  0.52838  0.12019  0.85178  1.0000
  Ca  Ca166     1.0  0.96910  0.88435  0.65516  1.0000
  Ca  Ca167     1.0  0.89028  0.48807  0.46456  1.0000
  Ca  Ca168     1.0  0.33454  0.67703  0.91390  1.0000
  Ca  Ca169     1.0  0.93263  0.46641  0.16734  1.0000
  Ca  Ca170     1.0  0.21278  0.05488  0.34466  1.0000
  Ca  Ca171     1.0  0.02438  0.21261  0.63109  1.0000
  Ca  Ca172     1.0  0.76897  0.88511  0.67598  1.0000
  Ca  Ca173     1.0  0.43132  0.13369  0.71948  1.0000
  Ca  Ca174     1.0  0.46686  0.70470  0.36405  1.0000
  Ca  Ca175     1.0  0.76229  0.81982  0.18276  1.0000
  Ca  Ca176     1.0  0.71749  0.02411  0.88311  1.0000
  Ca  Ca177     1.0  0.85802  0.43142  0.13779  1.0000
  Ca  Ca178     1.0  0.84488  0.91206  0.59149  1.0000
  Ca  Ca179     1.0  0.22744  0.45886  0.57737  1.0000
  Ca  Ca180     1.0  0.05457  0.36776  0.79325  1.0000
  Ca  Ca181     1.0  0.48460  0.41926  0.51671  1.0000
  Ca  Ca182     1.0  0.78491  0.15520  0.91204  1.0000
  Ca  Ca183     1.0  0.47024  0.52387  0.99749  1.0000
  Ca  Ca184     1.0  0.99743  0.48825  0.37487  1.0000
  Ca  Ca185     1.0  0.83914  0.40393  0.93279  1.0000
  Ca  Ca186     1.0  0.26940  0.62429  0.84932  1.0000
  Ca  Ca187     1.0  0.35174  0.26652  0.12229  1.0000
  Ca  Ca188     1.0  0.72403  0.62457  0.00850  1.0000
  Ca  Ca189     1.0  0.63903  0.66425  0.49240  1.0000
  Ca  Ca190     1.0  0.66708  0.58344  0.27828  1.0000
  Ca  Ca191     1.0  0.12656  0.09992  0.30250  1.0000
  Ca  Ca192     1.0  0.51731  0.13066  0.05094  1.0000
  Ca  Ca193     1.0  0.84828  0.44379  0.38916  1.0000
  Ca  Ca194     1.0  0.15693  0.38222  0.44743  1.0000
  Ca  Ca195     1.0  0.04073  0.56130  0.45710  1.0000
  Ca  Ca196     1.0  0.76447  0.41626  0.39378  1.0000
  Ca  Ca197     1.0  0.85706  0.90463  0.68299  1.0000
  Ca  Ca198     1.0  0.95044  0.86074  0.08683  1.0000
  Ca  Ca199     1.0  0.04824  0.03899  0.48302  1.0000
  Ca  Ca200     1.0  0.18793  0.65629  0.68729  1.0000
  Ca  Ca201     1.0  0.47419  0.03039  0.85210  1.0000
  Ca  Ca202     1.0  0.80649  0.92189  0.89018  1.0000
  Ca  Ca203     1.0  0.65677  0.78811  0.59075  1.0000
  Ca  Ca204     1.0  0.28009  0.96250  0.25140  1.0000
  Ca  Ca205     1.0  0.91687  0.85890  0.41213  1.0000
  Ca  Ca206     1.0  0.60283  0.09674  0.14662  1.0000
  Ca  Ca207     1.0  0.36193  0.84841  0.56301  1.0000
  Ca  Ca208     1.0  0.31139  0.12187  0.65292  1.0000
  Ca  Ca209     1.0  0.19432  0.19670  0.06991  1.0000
  Ca  Ca210     1.0  0.08344  0.12106  0.74807  1.0000
  Ca  Ca211     1.0  0.07550  0.31472  0.51974  1.0000
  Ca  Ca212     1.0  0.35475  0.04775  0.37972  1.0000
  Ca  Ca213     1.0  0.35218  0.67097  0.06709  1.0000
  Ca  Ca214     1.0  0.32533  0.84327  0.45752  1.0000
  Ca  Ca215     1.0  0.77252  0.16284  0.40016  1.0000
  Ca  Ca216     1.0  0.03915  0.41966  0.55975  1.0000
  Ca  Ca217     1.0  0.37764  0.18180  0.23485  1.0000
  Ca  Ca218     1.0  0.85566  0.83380  0.80568  1.0000
  Ca  Ca219     1.0  0.06751  0.61599  0.87558  1.0000
  Ca  Ca220     1.0  0.21180  0.47299  0.02790  1.0000
  Ca  Ca221     1.0  0.99641  0.33203  0.03315  1.0000
  Ca  Ca222     1.0  0.11544  0.51693  0.04444  1.0000
  Ca  Ca223     1.0  0.41933  0.34207  0.21368  1.0000
  Ca  Ca224     1.0  0.08196  0.22221  0.36147  1.0000
  Ca  Ca225     1.0  0.03623  0.12706  0.19935  1.0000
  Ca  Ca226     1.0  0.91635  0.28409  0.00896  1.0000
  Ca  Ca227     1.0  0.47095  0.99888  0.10913  1.0000
  Ca  Ca228     1.0  0.01880  0.62355  0.04046  1.0000
  Ca  Ca229     1.0  0.48844  0.21737  0.67767  1.0000
  Ca  Ca230     1.0  0.09395  0.15581  0.23167  1.0000
  Ca  Ca231     1.0  0.86268  0.54660  0.05145  1.0000
  Ca  Ca232     1.0  0.99138  0.28263  0.44970  1.0000
  Ca  Ca233     1.0  0.81878  0.00345  0.97302  1.0000
  Ca  Ca234     1.0  0.42843  0.09494  0.54204  1.0000
  Ca  Ca235     1.0  0.18636  0.51552  0.41422  1.0000
  Ca  Ca236     1.0  0.01649  0.92810  0.46979  1.0000
  Ca  Ca237     1.0  0.83263  0.22060  0.50533  1.0000
  Ca  Ca238     1.0  0.83143  0.38107  0.64347  1.0000
  Ca  Ca239     1.0  0.05379  0.46069  0.31220  1.0000
  Ca  Ca240     1.0  0.77852  0.46118  0.30579  1.0000
  Ca  Ca241     1.0  0.98964  0.90063  0.55516  1.0000
  Ca  Ca242     1.0  0.70513  0.55183  0.90485  1.0000
  Ca  Ca243     1.0  0.03461  0.29526  0.77361  1.0000
  Ca  Ca244     1.0  0.39251  0.83154  0.17803  1.0000
  Ca  Ca245     1.0  0.54412  0.18666  0.82854  1.0000
  Ca  Ca246     1.0  0.68734  0.58167  0.52213  1.0000
  Ca  Ca247     1.0  0.64849  0.66228  0.09208  1.0000
  Ca  Ca248     1.0  0.21508  0.00786  0.44957  1.0000
  Ca  Ca249     1.0  0.24410  0.96888  0.67399  1.0000
  Ca  Ca250     1.0  0.99636  0.74488  0.63984  1.0000
  Ca  Ca251     1.0  0.32771  0.33836  0.08878  1.0000
  Ca  Ca252     1.0  0.32864  0.93223  0.81528  1.0000
  Ca  Ca253     1.0  0.76861  0.85046  0.82648  1.0000
  Ca  Ca254     1.0  0.34501  0.61565  0.10656  1.0000
  Ca  Ca255     1.0  0.63574  0.78118  0.84381  1.0000
  Ca  Ca256     1.0  0.81022  0.52170  0.33316  1.0000
  Ca  Ca257     1.0  0.13756  0.03014  0.55572  1.0000
  Ca  Ca258     1.0  0.06045  0.74267  0.54895  1.0000
  Ca  Ca259     1.0  0.73101  0.14116  0.78941  1.0000
  Ca  Ca260     1.0  0.62058  0.05657  0.81050  1.0000
  Ca  Ca261     1.0  0.86012  0.15610  0.47554  1.0000
  Ca  Ca262     1.0  0.80147  0.68871  0.37956  1.0000
  Ca  Ca263     1.0  0.44778  0.54184  0.77932  1.0000
  Ca  Ca264     1.0  0.14697  0.42888  0.77214  1.0000
  Ca  Ca265     1.0  0.73382  0.18468  0.33272  1.0000
  Ca  Ca266     1.0  0.83271  0.19840  0.32315  1.0000
  Ca  Ca267     1.0  0.13529  0.59996  0.71832  1.0000
  Ca  Ca268     1.0  0.51562  0.29228  0.78427  1.0000
  Ca  Ca269     1.0  0.76831  0.97035  0.26438  1.0000
  Ca  Ca270     1.0  0.74013  0.75246  0.42552  1.0000
  Ca  Ca271     1.0  0.27735  0.20375  0.25332  1.0000
  Ca  Ca272     1.0  0.93897  0.44058  0.49301  1.0000
  Ca  Ca273     1.0  0.80858  0.91038  0.36347  1.0000
  Ca  Ca274     1.0  0.35515  0.88430  0.76187  1.0000
  Ca  Ca275     1.0  0.63491  0.67262  0.82356  1.0000
  Ca  Ca276     1.0  0.17524  0.02271  0.98093  1.0000
  Ca  Ca277     1.0  0.90148  0.02101  0.53237  1.0000
  Ca  Ca278     1.0  0.83895  0.59267  0.32132  1.0000
  Ca  Ca279     1.0  0.22273  0.18112  0.87669  1.0000
  Ca  Ca280     1.0  0.87022  0.49660  0.94915  1.0000
  Ca  Ca281     1.0  0.66367  0.39577  0.26479  1.0000
  Ca  Ca282     1.0  0.41203  0.72182  0.12183  1.0000
  Ca  Ca283     1.0  0.88329  0.18334  0.86882  1.0000
  Ca  Ca284     1.0  0.67501  0.76655  0.24184  1.0000
  Ca  Ca285     1.0  0.87273  0.26413  0.32303  1.0000
  Ca  Ca286     1.0  0.97162  0.38418  0.83311  1.0000
  Ca  Ca287     1.0  0.64797  0.63982  0.57195  1.0000
  Ca  Ca288     1.0  0.74824  0.97497  0.95014  1.0000
  Ca  Ca289     1.0  0.28464  0.29416  0.31464  1.0000
  Ca  Ca290     1.0  0.57263  0.79545  0.75412  1.0000
  Ca  Ca291     1.0  0.82030  0.63192  0.43672  1.0000
  Ca  Ca292     1.0  0.27601  0.55926  0.33968  1.0000
  Ca  Ca293     1.0  0.69854  0.69228  0.33920  1.0000
  Ca  Ca294     1.0  0.17024  0.98839  0.82309  1.0000
  Ca  Ca295     1.0  0.81327  0.01593  0.64385  1.0000
  Ca  Ca296     1.0  0.46308  0.59283  0.72169  1.0000
  Ca  Ca297     1.0  0.25239  0.30350  0.08009  1.0000
  Ca  Ca298     1.0  0.94655  0.71784  0.34540  1.0000
  Ca  Ca299     1.0  0.53645  0.31949  0.97176  1.0000
  Ca  Ca300     1.0  0.58253  0.11939  0.53329  1.0000
  Ca  Ca301     1.0  0.85602  0.65094  0.01420  1.0000
  Ca  Ca302     1.0  0.45036  0.66891  0.50420  1.0000
  Ca  Ca303     1.0  0.93663  0.69460  0.08687  1.0000
  Ca  Ca304     1.0  0.11222  0.40198  0.16523  1.0000
  Ca  Ca305     1.0  0.69351  0.88151  0.69389  1.0000
  Ca  Ca306     1.0  0.62765  0.41582  0.71688  1.0000
  Ca  Ca307     1.0  0.84002  0.15405  0.70592  1.0000
  Ca  Ca308     1.0  0.93028  0.24903  0.91416  1.0000
  Ca  Ca309     1.0  0.79827  0.06644  0.83490  1.0000
  Ca  Ca310     1.0  0.20485  0.50896  0.76192  1.0000
  Ca  Ca311     1.0  0.20847  0.22689  0.34931  1.0000
  Ca  Ca312     1.0  0.62429  0.18529  0.29849  1.0000
  Ca  Ca313     1.0  0.99161  0.03368  0.89750  1.0000
  Ca  Ca314     1.0  0.36323  0.86966  0.07366  1.0000
  Ca  Ca315     1.0  0.52532  0.44445  0.11966  1.0000
  Ca  Ca316     1.0  0.69703  0.61591  0.33225  1.0000
  Ca  Ca317     1.0  0.45208  0.28946  0.68239  1.0000
  Ca  Ca318     1.0  0.04968  0.28713  0.62806  1.0000
  Ca  Ca319     1.0  0.74658  0.92234  0.77672  1.0000
  Ca  Ca320     1.0  0.57180  0.87118  0.17821  1.0000
  Ca  Ca321     1.0  0.82599  0.69117  0.93270  1.0000
  Ca  Ca322     1.0  0.62073  0.04012  0.10740  1.0000
  Ca  Ca323     1.0  0.68518  0.85812  0.35493  1.0000
  Ca  Ca324     1.0  0.49388  0.88276  0.18498  1.0000
  Ca  Ca325     1.0  0.28543  0.52419  0.76348  1.0000
  Ca  Ca326     1.0  0.38902  0.33864  0.61707  1.0000
  Ca  Ca327     1.0  0.19095  0.22671  0.68629  1.0000
  Ca  Ca328     1.0  0.31726  0.70963  0.77976  1.0000
  Ca  Ca329     1.0  0.34507  0.22350  0.96617  1.0000
  Ca  Ca330     1.0  0.36045  0.30094  0.93079  1.0000
  Ca  Ca331     1.0  0.11598  0.04122  0.69968  1.0000
  Ca  Ca332     1.0  0.72986  0.75628  0.32510  1.0000
  Ca  Ca333     1.0  0.13963  0.16335  0.46301  1.0000
  Ca  Ca334     1.0  0.53508  0.86148  0.26538  1.0000
  Ca  Ca335     1.0  0.18905  0.78466  0.98415  1.0000
  Ca  Ca336     1.0  0.22013  0.13376  0.33188  1.0000
  Ca  Ca337     1.0  0.98650  0.14476  0.77251  1.0000
  Ca  Ca338     1.0  0.82829  0.43489  0.48975  1.0000
  Ca  Ca339     1.0  0.00220  0.56927  0.90153  1.0000
  Ca  Ca340     1.0  0.43194  0.83036  0.00784  1.0000
  Ca  Ca341     1.0  0.25670  0.93680  0.74159  1.0000
  Ca  Ca342     1.0  0.44038  0.01599  0.54188  1.0000
  Ca  Ca343     1.0  0.06979  0.95839  0.30108  1.0000
  Ca  Ca344     1.0  0.10641  0.25721  0.29961  1.0000
  Ca  Ca345     1.0  0.65137  0.96772  0.32944  1.0000
  Ca  Ca346     1.0  0.02569  0.02486  0.19642  1.0000
  Ca  Ca347     1.0  0.87150  0.36734  0.57797  1.0000
  Ca  Ca348     1.0  0.76455  0.74475  0.61666  1.0000
  Ca  Ca349     1.0  0.50289  0.24635  0.52632  1.0000
  Ca  Ca350     1.0  0.28677  0.44331  0.69536  1.0000
  Ca  Ca351     1.0  0.08780  0.21672  0.45251  1.0000
  Ca  Ca352     1.0  0.70724  0.55958  0.43978  1.0000
  Ca  Ca353     1.0  0.27610  0.19372  0.67565  1.0000
  Ca  Ca354     1.0  0.32311  0.61454  0.35126  1.0000
  Ca  Ca355     1.0  0.46861  0.37458  0.84260  1.0000
  Ca  Ca356     1.0  0.72252  0.14265  0.68760  1.0000
  Ca  Ca357     1.0  0.90136  0.40896  0.68174  1.0000
  Ca  Ca358     1.0  0.55160  0.65354  0.57067  1.0000
  Ca  Ca359     1.0  0.51905  0.35423  0.04774  1.0000
  Ca  Ca360     1.0  0.11906  0.99294  0.48673  1.0000
  Ca  Ca361     1.0  0.22896  0.35222  0.84497  1.0000
  Ca  Ca362     1.0  0.52552  0.41576  0.85619  1.0000
  Ca  Ca363     1.0  0.12517  0.85371  0.28518  1.0000
  Ca  Ca364     1.0  0.58818  0.97367  0.56214  1.0000
  Ca  Ca365     1.0  0.50551  0.47569  0.55306  1.0000
  Ca  Ca366     1.0  0.68768  0.38380  0.83844  1.0000
  Ca  Ca367     1.0  0.55306  0.19251  0.17031  1.0000
  Ca  Ca368     1.0  0.76970  0.84298  0.36949  1.0000
  Ca  Ca369     1.0  0.21163  0.58417  0.33363  1.0000
  Ca  Ca370     1.0  0.04024  0.51788  0.20454  1.0000
  Ca  Ca371     1.0  0.81187  0.36678  0.75370  1.0000
  Ca  Ca372     1.0  0.68206  0.45046  0.67051  1.0000
  Ca  Ca373     1.0  0.04272  0.80507  0.57853  1.0000
  Ca  Ca374     1.0  0.75270  0.47470  0.68621  1.0000
  Ca  Ca375     1.0  0.72188  0.30359  0.67966  1.0000
  Ca  Ca376     1.0  0.88560  0.77240  0.71055  1.0000
  Ca  Ca377     1.0  0.17267  0.19018  0.55201  1.0000
  Ca  Ca378     1.0  0.67128  0.99483  0.62233  1.0000
  Ca  Ca379     1.0  0.30049  0.86717  0.69248  1.0000
  Ca  Ca380     1.0  0.63569  0.49771  0.81483  1.0000
  Ca  Ca381     1.0  0.25039  0.47828  0.37591  1.0000
  Ca  Ca382     1.0  0.50886  0.54393  0.19661  1.0000
  Ca  Ca383     1.0  0.67189  0.64376  0.21823  1.0000
  Ca  Ca384     1.0  0.28392  0.71655  0.27954  1.0000
  Ca  Ca385     1.0  0.46561  0.22341  0.36936  1.0000
  Ca  Ca386     1.0  0.50101  0.09447  0.95325  1.0000
  Ca  Ca387     1.0  0.93343  0.45621  0.40580  1.0000
  Ca  Ca388     1.0  0.38018  0.14121  0.64749  1.0000
  Ca  Ca389     1.0  0.27310  0.22917  0.59218  1.0000
  Ca  Ca390     1.0  0.96843  0.13965  0.15455  1.0000
  Ca  Ca391     1.0  0.65377  0.29071  0.55360  1.0000
  Ca  Ca392     1.0  0.45611  0.81020  0.13808  1.0000
  Ca  Ca393     1.0  0.27830  0.12726  0.01953  1.0000
  Ca  Ca394     1.0  0.62081  0.79509  0.03484  1.0000
  Ca  Ca395     1.0  0.20844  0.89798  0.76298  1.0000
  Ca  Ca396     1.0  0.30102  0.69260  0.48369  1.0000
  Ca  Ca397     1.0  0.39576  0.15026  0.41731  1.0000
  Ca  Ca398     1.0  0.49444  0.94748  0.89375  1.0000
  Ca  Ca399     1.0  0.82251  0.85816  0.02897  1.0000
  Ca  Ca400     1.0  0.04859  0.73466  0.69566  1.0000
  Ca  Ca401     1.0  0.58761  0.23053  0.63165  1.0000
  Ca  Ca402     1.0  0.17391  0.28933  0.35228  1.0000
  Ca  Ca403     1.0  0.54129  0.06265  0.00705  1.0000
  Ca  Ca404     1.0  0.41046  0.34491  0.09520  1.0000
  Ca  Ca405     1.0  0.72786  0.22584  0.88885  1.0000
  Ca  Ca406     1.0  0.27515  0.23753  0.11193  1.0000
  Ca  Ca407     1.0  0.98993  0.76153  0.09425  1.0000
  Ca  Ca408     1.0  0.75167  0.21462  0.58485  1.0000
  Ca  Ca409     1.0  0.71030  0.78261  0.66773  1.0000
  Ca  Ca410     1.0  0.98767  0.60049  0.54429  1.0000
  Ca  Ca411     1.0  0.72032  0.86345  0.23756  1.0000
  Ca  Ca412     1.0  0.39707  0.60566  0.85260  1.0000
  Ca  Ca413     1.0  0.30156  0.78761  0.88101  1.0000
  Ca  Ca414     1.0  0.97180  0.77366  0.99866  1.0000
  Ca  Ca415     1.0  0.45612  0.78674  0.94492  1.0000
  Ca  Ca416     1.0  0.27367  0.96889  0.35587  1.0000
  Ca  Ca417     1.0  0.60476  0.86602  0.53556  1.0000
  Ca  Ca418     1.0  0.09692  0.64141  0.37920  1.0000
  Ca  Ca419     1.0  0.61702  0.57800  0.49739  1.0000
  Ca  Ca420     1.0  0.78805  0.57803  0.38120  1.0000
  Ca  Ca421     1.0  0.12280  0.28943  0.59592  1.0000
  Ca  Ca422     1.0  0.96861  0.25473  0.68106  1.0000
  Ca  Ca423     1.0  0.95434  0.00611  0.05081  1.0000
  Ca  Ca424     1.0  0.63619  0.70521  0.29239  1.0000
  Ca  Ca425     1.0  0.81614  0.74917  0.67797  1.0000
  Ca  Ca426     1.0  0.16423  0.88965  0.56442  1.0000
  Ca  Ca427     1.0  0.56476  0.88576  0.92677  1.0000
  Ca  Ca428     1.0  0.97744  0.47789  0.68513  1.0000
  Ca  Ca429     1.0  0.60989  0.40383  0.21352  1.0000
  Ca  Ca430     1.0  0.09868  0.48274  0.39897  1.0000
  Ca  Ca431     1.0  0.16265  0.05089  0.46955  1.0000
  Ca  Ca432     1.0  0.23282  0.97138  0.59232  1.0000
  Ca  Ca433     1.0  0.04999  0.31655  0.21768  1.0000
  Ca  Ca434     1.0  0.04292  0.41892  0.15620  1.0000
  Ca  Ca435     1.0  0.73832  0.37290  0.18935  1.0000
  Ca  Ca436     1.0  0.62653  0.74624  0.71279  1.0000
  Ca  Ca437     1.0  0.30945  0.49567  0.32830  1.0000
  Ca  Ca438     1.0  0.79263  0.13183  0.17767  1.0000
  Ca  Ca439     1.0  0.99451  0.22721  0.86446  1.0000
  Ca  Ca440     1.0  0.20420  0.49956  0.12053  1.0000
  Ca  Ca441     1.0  0.26547  0.62525  0.03746  1.0000
  Ca  Ca442     1.0  0.35528  0.24757  0.78548  1.0000
  Ca  Ca443     1.0  0.12590  0.48515  0.74276  1.0000
  Ca  Ca444     1.0  0.66314  0.73532  0.11970  1.0000
  Ca  Ca445     1.0  0.16144  0.79456  0.20305  1.0000
  Ca  Ca446     1.0  0.72106  0.44619  0.09206  1.0000
  Ca  Ca447     1.0  0.74647  0.06233  0.98601  1.0000
  Ca  Ca448     1.0  0.12626  0.91384  0.14054  1.0000
  Ca  Ca449     1.0  0.07900  0.08696  0.43274  1.0000
  Ca  Ca450     1.0  0.22043  0.96533  0.12111  1.0000
  Ca  Ca451     1.0  0.88609  0.79429  0.89585  1.0000
  Ca  Ca452     1.0  0.72267  0.98529  0.12355  1.0000
  Ca  Ca453     1.0  0.20373  0.67537  0.35417  1.0000
  Ca  Ca454     1.0  0.31520  0.31336  0.99538  1.0000
  Ca  Ca455     1.0  0.92532  0.33328  0.25900  1.0000
  Ca  Ca456     1.0  0.56619  0.93595  0.23530  1.0000
  Ca  Ca457     1.0  0.72969  0.08784  0.85529  1.0000
  Ca  Ca458     1.0  0.90470  0.92020  0.55217  1.0000
  Ca  Ca459     1.0  0.93435  0.85321  0.74073  1.0000
  Ca  Ca460     1.0  0.38398  0.74362  0.53330  1.0000
  Ca  Ca461     1.0  0.63695  0.32879  0.43200  1.0000
  Ca  Ca462     1.0  0.38347  0.65636  0.32463  1.0000
  Ca  Ca463     1.0  0.36014  0.79908  0.25795  1.0000
  Ca  Ca464     1.0  0.02696  0.36174  0.33694  1.0000
  Ca  Ca465     1.0  0.40769  0.33652  0.39921  1.0000
  Ca  Ca466     1.0  0.00430  0.63772  0.90519  1.0000
  Ca  Ca467     1.0  0.66296  0.20336  0.71857  1.0000
  Ca  Ca468     1.0  0.87958  0.28008  0.23828  1.0000
  Ca  Ca469     1.0  0.88358  0.77077  0.34193  1.0000
  Ca  Ca470     1.0  0.41478  0.34316  0.99410  1.0000
  Ca  Ca471     1.0  0.32567  0.24932  0.70514  1.0000
  Ca  Ca472     1.0  0.07566  0.91478  0.51712  1.0000
  Ca  Ca473     1.0  0.01482  0.01502  0.76754  1.0000
  Ca  Ca474     1.0  0.78043  0.82483  0.09343  1.0000
  Ca  Ca475     1.0  0.32309  0.90428  0.62966  1.0000
  Ca  Ca476     1.0  0.92421  0.20357  0.10993  1.0000
  Ca  Ca477     1.0  0.95406  0.53828  0.68021  1.0000
  Ca  Ca478     1.0  0.33068  0.00432  0.81269  1.0000
  Ca  Ca479     1.0  0.66294  0.88038  0.99189  1.0000
  Ca  Ca480     1.0  0.61515  0.89558  0.83127  1.0000
  Ca  Ca481     1.0  0.68555  0.50287  0.47655  1.0000
  Ca  Ca482     1.0  0.74753  0.86700  0.47180  1.0000
  Ca  Ca483     1.0  0.84054  0.10530  0.03302  1.0000
  Ca  Ca484     1.0  0.15673  0.79001  0.58996  1.0000
  Ca  Ca485     1.0  0.50591  0.59705  0.37441  1.0000
  Ca  Ca486     1.0  0.50981  0.23623  0.31149  1.0000
  Ca  Ca487     1.0  0.68389  0.31095  0.37629  1.0000
  Ca  Ca488     1.0  0.92429  0.08236  0.32722  1.0000
  Ca  Ca489     1.0  0.83476  0.75242  0.06896  1.0000
  Ca  Ca490     1.0  0.35797  0.12517  0.95936  1.0000
  Ca  Ca491     1.0  0.25949  0.67370  0.64159  1.0000
  Ca  Ca492     1.0  0.63632  0.33160  0.64776  1.0000
  Ca  Ca493     1.0  0.79256  0.28246  0.15721  1.0000
  Ca  Ca494     1.0  0.09354  0.70945  0.23740  1.0000
  Ca  Ca495     1.0  0.07647  0.97328  0.57067  1.0000
  Ca  Ca496     1.0  0.47493  0.82761  0.23410  1.0000
  Ca  Ca497     1.0  0.66040  0.96586  0.92819  1.0000
  Ca  Ca498     1.0  0.20984  0.65318  0.92536  1.0000
  Ca  Ca499     1.0  0.70920  0.29199  0.91542  1.0000
  Ca  Ca500     1.0  0.21730  0.10936  0.93066  1.0000
  Ca  Ca501     1.0  0.58256  0.47670  0.22144  1.0000
  Ca  Ca502     1.0  0.49588  0.87448  0.47085  1.0000
  Ca  Ca503     1.0  0.58362  0.07166  0.71558  1.0000
  Ca  Ca504     1.0  0.74572  0.35169  0.04150  1.0000
  Ca  Ca505     1.0  0.52022  0.80243  0.68940  1.0000
  Ca  Ca506     1.0  0.51983  0.46312  0.91247  1.0000
  Ca  Ca507     1.0  0.49745  0.71727  0.61309  1.0000
  Ca  Ca508     1.0  0.44328  0.92126  0.56207  1.0000
  Ca  Ca509     1.0  0.84574  0.28094  0.95450  1.0000
  Ca  Ca510     1.0  0.22170  0.38372  0.69676  1.0000
  Ca  Ca511     1.0  0.01651  0.81616  0.79040  1.0000
  Ca  Ca512     1.0  0.59284  0.29062  0.96028  1.0000
  Ca  Ca513     1.0  0.08319  0.70263  0.03372  1.0000
  Ca  Ca514     1.0  0.36861  0.93729  0.57860  1.0000
  Ca  Ca515     1.0  0.79780  0.05006  0.04423  1.0000
  Ca  Ca516     1.0  0.81092  0.96216  0.41318  1.0000
  Ca  Ca517     1.0  0.40434  0.18730  0.75555  1.0000
  Ca  Ca518     1.0  0.06928  0.23123  0.53027  1.0000
  Ca  Ca519     1.0  0.53254  0.36969  0.13009  1.0000
  Ca  Ca520     1.0  0.76744  0.19148  0.05715  1.0000
  Ca  Ca521     1.0  0.54179  0.98981  0.37380  1.0000
  Ca  Ca522     1.0  0.47806  0.89707  0.39036  1.0000
  Ca  Ca523     1.0  0.79516  0.30605  0.61835  1.0000
  Ca  Ca524     1.0  0.56346  0.94198  0.83608  1.0000
  Ca  Ca525     1.0  0.41783  0.76707  0.36658  1.0000
  Ca  Ca526     1.0  0.78118  0.40339  0.12756  1.0000
  Ca  Ca527     1.0  0.71506  0.55086  0.59813  1.0000
  Ca  Ca528     1.0  0.48392  0.38606  0.62362  1.0000
  Ca  Ca529     1.0  0.08220  0.92103  0.21922  1.0000
  Ca  Ca530     1.0  0.33935  0.04208  0.61576  1.0000
  Ca  Ca531     1.0  0.78870  0.07774  0.92169  1.0000
  Ca  Ca532     1.0  0.45621  0.59892  0.51012  1.0000
  Ca  Ca533     1.0  0.87879  0.79419  0.51491  1.0000
  Ca  Ca534     1.0  0.37375  0.46884  0.30984  1.0000
  Ca  Ca535     1.0  0.82315  0.53185  0.65832  1.0000
  Ca  Ca536     1.0  0.57821  0.37733  0.88914  1.0000
  Ca  Ca537     1.0  0.55708  0.75268  0.98324  1.0000
  Ca  Ca538     1.0  0.94149  0.15298  0.83998  1.0000
  Ca  Ca539     1.0  0.33554  0.58794  0.02893  1.0000
  Ca  Ca540     1.0  0.19912  0.82509  0.29386  1.0000
  Ca  Ca541     1.0  0.08207  0.18356  0.11699  1.0000
  Ca  Ca542     1.0  0.74455  0.94829  0.70026  1.0000
  Ca  Ca543     1.0  0.84631  0.13505  0.82094  1.0000
  Ca  Ca544     1.0  0.36890  0.18370  0.04434  1.0000
  Ca  Ca545     1.0  0.58966  0.75612  0.50565  1.0000
  Ca  Ca546     1.0  0.11534  0.09458  0.51273  1.0000
  Ca  Ca547     1.0  0.24344  0.27799  0.69839  1.0000
  Ca  Ca548     1.0  0.61792  0.56456  0.35218  1.0000
  Ca  Ca549     1.0  0.83497  0.26596  0.02724  1.0000
  Ca  Ca550     1.0  0.11236  0.87832  0.79354  1.0000
  Ca  Ca551     1.0  0.18962  0.02563  0.28205  1.0000
  Ca  Ca552     1.0  0.42400  0.81678  0.69510  1.0000
  Ca  Ca553     1.0  0.98094  0.74595  0.74189  1.0000
  Ca  Ca554     1.0  0.87984  0.59205  0.91532  1.0000
  Ca  Ca555     1.0  0.57023  0.15234  0.08805  1.0000
  Ca  Ca556     1.0  0.30558  0.96900  0.97185  1.0000
  Ca  Ca557     1.0  0.46728  0.15709  0.42115  1.0000
  Ca  Ca558     1.0  0.25272  0.71212  0.81379  1.0000
  Ca  Ca559     1.0  0.54962  0.34762  0.71301  1.0000
  Ca  Ca560     1.0  0.41925  0.77874  0.59205  1.0000
  Ca  Ca561     1.0  0.91325  0.53383  0.58642  1.0000
  Ca  Ca562     1.0  0.06550  0.42677  0.99888  1.0000
  Ca  Ca563     1.0  0.93390  0.69402  0.71636  1.0000
  Ca  Ca564     1.0  0.87307  0.06709  0.83191  1.0000
  Ca  Ca565     1.0  0.96585  0.18600  0.99101  1.0000
  Ca  Ca566     1.0  0.79296  0.18011  0.64071  1.0000
  Ca  Ca567     1.0  0.78692  0.08612  0.11499  1.0000
  Ca  Ca568     1.0  0.28211  0.16349  0.94880  1.0000
  Ca  Ca569     1.0  0.33284  0.46554  0.14739  1.0000
  Ca  Ca570     1.0  0.64658  0.53014  0.55959  1.0000
  Ca  Ca571     1.0  0.97368  0.98970  0.13472  1.0000
  Ca  Ca572     1.0  0.68982  0.09153  0.17678  1.0000
  Ca  Ca573     1.0  0.62079  0.29060  0.17783  1.0000
  Ca  Ca574     1.0  0.41393  0.37519  0.33207  1.0000
  Ca  Ca575     1.0  0.58368  0.37696  0.58342  1.0000
  Ca  Ca576     1.0  0.72228  0.59800  0.19224  1.0000
  Ca  Ca577     1.0  0.26611  0.51805  0.51334  1.0000
  Ca  Ca578     1.0  0.08705  0.79372  0.77785  1.0000
  Ca  Ca579     1.0  0.67426  0.18348  0.54773  1.0000
  Ca  Ca580     1.0  0.97160  0.82125  0.57703  1.0000
  Ca  Ca581     1.0  0.57250  0.40916  0.66361  1.0000
  Ca  Ca582     1.0  0.24953  0.55353  0.85452  1.0000
  Ca  Ca583     1.0  0.15498  0.84638  0.62156  1.0000
  Ca  Ca584     1.0  0.97062  0.41074  0.66351  1.0000
  Ca  Ca585     1.0  0.18592  0.57892  0.13640  1.0000
  Ca  Ca586     1.0  0.91833  0.77383  0.80407  1.0000
  Ca  Ca587     1.0  0.54804  0.93601  0.98746  1.0000
  Ca  Ca588     1.0  0.33401  0.19751  0.14238  1.0000
  Ca  Ca589     1.0  0.37568  0.27650  0.43021  1.0000
  Ca  Ca590     1.0  0.30428  0.94807  0.55032  1.0000
  Ca  Ca591     1.0  0.58146  0.03345  0.18497  1.0000
  Ca  Ca592     1.0  0.08639  0.85790  0.41582  1.0000
  Ca  Ca593     1.0  0.57588  0.46722  0.53629  1.0000
  Ca  Ca594     1.0  0.50966  0.65447  0.88119  1.0000
  Ca  Ca595     1.0  0.82890  0.88479  0.76141  1.0000
  Ca  Ca596     1.0  0.49951  0.45023  0.28824  1.0000
  Ca  Ca597     1.0  0.93814  0.92405  0.44620  1.0000
  Ca  Ca598     1.0  0.02145  0.80260  0.68502  1.0000
  Ca  Ca599     1.0  0.91600  0.01957  0.87993  1.0000
  Ca  Ca600     1.0  0.34282  0.57398  0.74005  1.0000
  Ca  Ca601     1.0  0.53813  0.53341  0.57408  1.0000
  Ca  Ca602     1.0  0.92534  0.82922  0.34775  1.0000
  Ca  Ca603     1.0  0.29483  0.55290  0.67439  1.0000
  Ca  Ca604     1.0  0.55688  0.56621  0.32019  1.0000
  Ca  Ca605     1.0  0.24953  0.59730  0.94661  1.0000
  Ca  Ca606     1.0  0.10457  0.82218  0.70617  1.0000
  Ca  Ca607     1.0  0.29543  0.87074  0.87118  1.0000
  Ca  Ca608     1.0  0.86664  0.60071  0.75763  1.0000
  Ca  Ca609     1.0  0.50395  0.65870  0.02721  1.0000
  Ca  Ca610     1.0  0.45801  0.17390  0.62924  1.0000
  Ca  Ca611     1.0  0.06941  0.85724  0.65628  1.0000
  Ca  Ca612     1.0  0.78639  0.02753  0.51371  1.0000
  Ca  Ca613     1.0  0.98659  0.80720  0.45019  1.0000
  Ca  Ca614     1.0  0.80330  0.29220  0.70877  1.0000
  Ca  Ca615     1.0  0.20013  0.43257  0.86903  1.0000
  Ca  Ca616     1.0  0.61985  0.74493  0.92131  1.0000
  Ca  Ca617     1.0  0.61293  0.81593  0.67758  1.0000
  Ca  Ca618     1.0  0.37457  0.86362  0.89644  1.0000
  Ca  Ca619     1.0  0.20467  0.18083  0.41431  1.0000
  Ca  Ca620     1.0  0.98236  0.45869  0.96022  1.0000
  Ca  Ca621     1.0  0.28383  0.27894  0.78763  1.0000
  Ca  Ca622     1.0  0.34043  0.64166  0.51706  1.0000
  Ca  Ca623     1.0  0.86204  0.38254  0.50230  1.0000
  Ca  Ca624     1.0  0.30889  0.38100  0.20991  1.0000
  Ca  Ca625     1.0  0.33027  0.18525  0.76937  1.0000
  Ca  Ca626     1.0  0.43278  0.41199  0.44993  1.0000
  Ca  Ca627     1.0  0.58391  0.99056  0.43615  1.0000
  Ca  Ca628     1.0  0.48196  0.35932  0.47973  1.0000
  Ca  Ca629     1.0  0.06146  0.62704  0.56243  1.0000
  Ca  Ca630     1.0  0.43251  0.86155  0.61411  1.0000
  Ca  Ca631     1.0  0.43139  0.64251  0.03890  1.0000
  Ca  Ca632     1.0  0.22716  0.31620  0.95172  1.0000
  Ca  Ca633     1.0  0.26580  0.41412  0.03106  1.0000
  Ca  Ca634     1.0  0.86948  0.10432  0.23714  1.0000
  Ca  Ca635     1.0  0.30130  0.84313  0.01523  1.0000
  Ca  Ca636     1.0  0.48825  0.69161  0.27985  1.0000
  Ca  Ca637     1.0  0.76652  0.09316  0.55970  1.0000
  Ca  Ca638     1.0  0.13719  0.48993  0.14321  1.0000
  Ca  Ca639     1.0  0.41382  0.90219  0.68164  1.0000
  Ca  Ca640     1.0  0.66068  0.72239  0.77661  1.0000
  Ca  Ca641     1.0  0.51543  0.59993  0.67170  1.0000
  Ca  Ca642     1.0  0.42144  0.75163  0.73179  1.0000
  Ca  Ca643     1.0  0.86320  0.35657  0.09457  1.0000
  Ca  Ca644     1.0  0.08450  0.63394  0.46477  1.0000
  Ca  Ca645     1.0  0.94065  0.42179  0.30292  1.0000
  Ca  Ca646     1.0  0.45397  0.61723  0.63033  1.0000
  Ca  Ca647     1.0  0.77362  0.75588  0.19905  1.0000
  Ca  Ca648     1.0  0.06197  0.52631  0.98848  1.0000
  Ca  Ca649     1.0  0.96147  0.65828  0.48851  1.0000
  Ca  Ca650     1.0  0.31878  0.75425  0.65757  1.0000
  Ca  Ca651     1.0  0.32467  0.33282  0.58805  1.0000
  Ca  Ca652     1.0  0.78975  0.03509  0.23224  1.0000
  Ca  Ca653     1.0  0.86358  0.63877  0.21968  1.0000
  Ca  Ca654     1.0  0.40148  0.99097  0.20033  1.0000
  Ca  Ca655     1.0  0.26737  0.33875  0.14716  1.0000
  Ca  Ca656     1.0  0.65850  0.14569  0.78122  1.0000
  Ca  Ca657     1.0  0.45874  0.07301  0.46836  1.0000
  Ca  Ca658     1.0  0.18030  0.53743  0.50581  1.0000
  Ca  Ca659     1.0  0.69667  0.63891  0.68102  1.0000
  Ca  Ca660     1.0  0.91686  0.23511  0.39517  1.0000
  Ca  Ca661     1.0  0.71054  0.27273  0.01489  1.0000
  Ca  Ca662     1.0  0.14480  0.43184  0.35729  1.0000
  Ca  Ca663     1.0  0.63294  0.92240  0.50439  1.0000
  Ca  Ca664     1.0  0.32395  0.60988  0.94552  1.0000
  Ca  Ca665     1.0  0.90375  0.53510  0.83573  1.0000
  Ca  Ca666     1.0  0.14949  0.12642  0.15358  1.0000
  Ca  Ca667     1.0  0.93620  0.50433  0.24755  1.0000
  Ca  Ca668     1.0  0.08385  0.87642  0.92776  1.0000
  Ca  Ca669     1.0  0.08694  0.14310  0.34025  1.0000
  Ca  Ca670     1.0  0.42439  0.06170  0.67429  1.0000
  Ca  Ca671     1.0  0.16631  0.14010  0.84426  1.0000
  Ca  Ca672     1.0  0.54546  0.03663  0.80469  1.0000
  Ca  Ca673     1.0  0.93525  0.32272  0.46344  1.0000
  Ca  Ca674     1.0  0.07713  0.40162  0.36408  1.0000
  Ca  Ca675     1.0  0.46467  0.96433  0.43824  1.0000
  Ca  Ca676     1.0  0.62749  0.55231  0.68461  1.0000
  Ca  Ca677     1.0  0.33374  0.62969  0.80798  1.0000
  Ca  Ca678     1.0  0.89873  0.86476  0.17786  1.0000
  Ca  Ca679     1.0  0.77196  0.26125  0.96735  1.0000
  Ca  Ca680     1.0  0.46048  0.45183  0.39234  1.0000
  Ca  Ca681     1.0  0.98502  0.71021  0.97729  1.0000
  Ca  Ca682     1.0  0.25830  0.82115  0.62034  1.0000
  Ca  Ca683     1.0  0.08063  0.08073  0.23019  1.0000
  Ca  Ca684     1.0  0.47781  0.26716  0.12398  1.0000
  Ca  Ca685     1.0  0.06821  0.34631  0.00063  1.0000
  Ca  Ca686     1.0  0.47735  0.02830  0.40584  1.0000
  Ca  Ca687     1.0  0.92899  0.73800  0.27055  1.0000
  Ca  Ca688     1.0  0.39278  0.98468  0.64080  1.0000
  Ca  Ca689     1.0  0.38008  0.47203  0.74106  1.0000
  Ca  Ca690     1.0  0.02408  0.58756  0.38782  1.0000
  Ca  Ca691     1.0  0.92184  0.44891  0.06514  1.0000
  Ca  Ca692     1.0  0.08277  0.72067  0.61839  1.0000
  Ca  Ca693     1.0  0.89368  0.33218  0.34729  1.0000
  Ca  Ca694     1.0  0.20945  0.72275  0.67606  1.0000
  Ca  Ca695     1.0  0.80726  0.11660  0.64504  1.0000
  Ca  Ca696     1.0  0.35571  0.81475  0.69693  1.0000
  Ca  Ca697     1.0  0.64778  0.01316  0.86157  1.0000
  Ca  Ca698     1.0  0.51344  0.47276  0.19352  1.0000
  Ca  Ca699     1.0  0.59033  0.57810  0.94329  1.0000
  Ca  Ca700     1.0  0.59654  0.11848  0.01463  1.0000
  Ca  Ca701     1.0  0.11085  0.26631  0.04171  1.0000
  Ca  Ca702     1.0  0.62888  0.13229  0.59990  1.0000
  Ca  Ca703     1.0  0.27434  0.59384  0.49717  1.0000
  Ca  Ca704     1.0  0.48458  0.38022  0.21826  1.0000
  Ca  Ca705     1.0  0.50710  0.58697  0.01749  1.0000
  Ca  Ca706     1.0  0.21249  0.15495  0.70222  1.0000
  Ca  Ca707     1.0  0.43018  0.24359  0.46934  1.0000
  Ca  Ca708     1.0  0.75308  0.19871  0.72252  1.0000
  Ca  Ca709     1.0  0.22100  0.64373  0.76264  1.0000
  Ca  Ca710     1.0  0.37923  0.55106  0.09757  1.0000
  Ca  Ca711     1.0  0.01418  0.17672  0.93450  1.0000
  Ca  Ca712     1.0  0.70271  0.77648  0.52461  1.0000
  Ca  Ca713     1.0  0.00506  0.35013  0.68549  1.0000
  Ca  Ca714     1.0  0.40446  0.04673  0.14227  1.0000
  Ca  Ca715     1.0  0.59511  0.37943  0.03392  1.0000
  Ca  Ca716     1.0  0.47674  0.37941  0.39106  1.0000
  Ca  Ca717     1.0  0.29674  0.69581  0.56610  1.0000
  Ca  Ca718     1.0  0.59419  0.04726  0.91181  1.0000
  Ca  Ca719     1.0  0.47409  0.29691  0.42128  1.0000
  Ca  Ca720     1.0  0.88838  0.15028  0.58981  1.0000
  Ca  Ca721     1.0  0.60017  0.36524  0.79433  1.0000
  Ca  Ca722     1.0  0.34955  0.51295  0.49111  1.0000
  Ca  Ca723     1.0  0.07718  0.04194  0.58304  1.0000
  Ca  Ca724     1.0  0.97649  0.80093  0.91539  1.0000
  Ca  Ca725     1.0  0.17751  0.77494  0.70513  1.0000
  Ca  Ca726     1.0  0.76287  0.01476  0.42250  1.0000
  Ca  Ca727     1.0  0.57527  0.45021  0.05060  1.0000
  Ca  Ca728     1.0  0.64759  0.43652  0.05427  1.0000
  Ca  Ca729     1.0  0.37021  0.36805  0.26805  1.0000
  Ca  Ca730     1.0  0.80490  0.96096  0.52225  1.0000
  Ca  Ca731     1.0  0.32349  0.76237  0.34460  1.0000
  Ca  Ca732     1.0  0.41474  0.21946  0.10848  1.0000
  Ca  Ca733     1.0  0.68699  0.48282  0.60140  1.0000
  Ca  Ca734     1.0  0.12977  0.70804  0.72055  1.0000
  Ca  Ca735     1.0  0.78057  0.59915  0.82755  1.0000
  Ca  Ca736     1.0  0.62488  0.51515  0.29729  1.0000
  Ca  Ca737     1.0  0.55810  0.82744  0.99439  1.0000
  Ca  Ca738     1.0  0.62672  0.60173  0.63603  1.0000
  Ca  Ca739     1.0  0.17653  0.64757  0.18282  1.0000
  Ca  Ca740     1.0  0.08800  0.38804  0.45681  1.0000
  Ca  Ca741     1.0  0.88754  0.04401  0.64396  1.0000
  Ca  Ca742     1.0  0.08125  0.00173  0.23322  1.0000
  Ca  Ca743     1.0  0.06914  0.00377  0.03352  1.0000
  Ca  Ca744     1.0  0.32299  0.21394  0.34555  1.0000
  Ca  Ca745     1.0  0.59691  0.31556  0.85962  1.0000
  Ca  Ca746     1.0  0.87460  0.33949  0.78576  1.0000
  Ca  Ca747     1.0  0.72382  0.36990  0.51536  1.0000
  Ca  Ca748     1.0  0.58360  0.73547  0.64741  1.0000
  Ca  Ca749     1.0  0.69681  0.13274  0.27317  1.0000
  Ca  Ca750     1.0  0.22725  0.61332  0.22444  1.0000
  Ca  Ca751     1.0  0.80926  0.47571  0.61414  1.0000
  Ca  Ca752     1.0  0.32719  0.01314  0.03522  1.0000
  Ca  Ca753     1.0  0.82128  0.35471  0.87272  1.0000
  Ca  Ca754     1.0  0.49723  0.82324  0.90036  1.0000
  Ca  Ca755     1.0  0.89997  0.91263  0.89427  1.0000
  Ca  Ca756     1.0  0.37723  0.39961  0.99988  1.0000
  Ca  Ca757     1.0  0.79890  0.17297  0.78753  1.0000
  Ca  Ca758     1.0  0.48231  0.91809  0.73354  1.0000
  Ca  Ca759     1.0  0.75805  0.93718  0.60444  1.0000
  Ca  Ca760     1.0  0.20932  0.31970  0.19833  1.0000
  Ca  Ca761     1.0  0.57868  0.59120  0.57618  1.0000
  Ca  Ca762     1.0  0.71972  0.71947  0.24215  1.0000
  Ca  Ca763     1.0  0.51532  0.19097  0.01716  1.0000
  Ca  Ca764     1.0  0.19837  0.43747  0.40744  1.0000
  Ca  Ca765     1.0  0.17198  0.19327  0.78132  1.0000
  Ca  Ca766     1.0  0.15464  0.14448  0.96182  1.0000
  Ca  Ca767     1.0  0.19476  0.11706  0.55656  1.0000
  Ca  Ca768     1.0  0.75276  0.50330  0.50432  1.0000
  Ca  Ca769     1.0  0.70498  0.94692  0.53271  1.0000
  Ca  Ca770     1.0  0.30222  0.07601  0.27489  1.0000
  Ca  Ca771     1.0  0.13538  0.33210  0.07398  1.0000
  Ca  Ca772     1.0  0.73783  0.85189  0.74921  1.0000
  Ca  Ca773     1.0  0.07403  0.37719  0.71462  1.0000
  Ca  Ca774     1.0  0.98409  0.90936  0.31572  1.0000
  Ca  Ca775     1.0  0.20188  0.24141  0.89427  1.0000
  Ca  Ca776     1.0  0.25632  0.77873  0.29517  1.0000
  Ca  Ca777     1.0  0.34375  0.83210  0.32908  1.0000
  Ca  Ca778     1.0  0.51072  0.94016  0.06694  1.0000
  Ca  Ca779     1.0  0.54267  0.40829  0.43165  1.0000
  Ca  Ca780     1.0  0.32308  0.29256  0.20924  1.0000
  Ca  Ca781     1.0  0.97351  0.23723  0.07349  1.0000
  Ca  Ca782     1.0  0.61844  0.58764  0.76706  1.0000
  Ca  Ca783     1.0  0.80807  0.86120  0.52043  1.0000
  Ca  Ca784     1.0  0.51537  0.84347  0.62541  1.0000
  Ca  Ca785     1.0  0.24573  0.24133  0.19276  1.0000
  Ca  Ca786     1.0  0.62975  0.38093  0.95848  1.0000
  Ca  Ca787     1.0  0.65031  0.26366  0.06181  1.0000
  Ca  Ca788     1.0  0.75739  0.52145  0.39184  1.0000
  Ca  Ca789     1.0  0.20911  0.15049  0.13555  1.0000
  Ca  Ca790     1.0  0.36325  0.15501  0.57341  1.0000
  Ca  Ca791     1.0  0.54601  0.24412  0.70199  1.0000
  Ca  Ca792     1.0  0.12741  0.19743  0.17014  1.0000
  Ca  Ca793     1.0  0.30292  0.62730  0.69374  1.0000
  Ca  Ca794     1.0  0.56922  0.67705  0.43904  1.0000
  Ca  Ca795     1.0  0.29783  0.07598  0.51706  1.0000
  Ca  Ca796     1.0  0.59259  0.55383  0.20484  1.0000
  Ca  Ca797     1.0  0.02130  0.32520  0.93309  1.0000
  Ca  Ca798     1.0  0.68012  0.77653  0.43544  1.0000
  Ca  Ca799     1.0  0.61558  0.44293  0.29072  1.0000
  Ca  Ca800     1.0  0.31009  0.41165  0.37801  1.0000
  Ca  Ca801     1.0  0.15574  0.13973  0.05928  1.0000
  Ca  Ca802     1.0  0.22085  0.38934  0.48473  1.0000
  Ca  Ca803     1.0  0.71281  0.66144  0.58638  1.0000
  Ca  Ca804     1.0  0.73590  0.94985  0.45912  1.0000
  Ca  Ca805     1.0  0.32855  0.40201  0.10772  1.0000
  Ca  Ca806     1.0  0.50779  0.48387  0.04367  1.0000
  Ca  Ca807     1.0  0.77924  0.46140  0.44510  1.0000
  Ca  Ca808     1.0  0.35883  0.11705  0.77296  1.0000
  Ca  Ca809     1.0  0.29833  0.05484  0.12517  1.0000
  Ca  Ca810     1.0  0.87004  0.84393  0.71320  1.0000
  Ca  Ca811     1.0  0.74959  0.66623  0.06614  1.0000
  Ca  Ca812     1.0  0.33226  0.89697  0.32652  1.0000
  Ca  Ca813     1.0  0.42869  0.97109  0.27844  1.0000
  Ca  Ca814     1.0  0.28149  0.39611  0.86603  1.0000
  Ca  Ca815     1.0  0.14560  0.58290  0.37358  1.0000
  Ca  Ca816     1.0  0.91416  0.97588  0.34710  1.0000
  Ca  Ca817     1.0  0.03225  0.68794  0.75045  1.0000
  Ca  Ca818     1.0  0.75074  0.24476  0.44497  1.0000
  Ca  Ca819     1.0  0.93755  0.51188  0.98841  1.0000
  Ca  Ca820     1.0  0.73677  0.97823  0.82203  1.0000
  Ca  Ca821     1.0  0.75617  0.29607  0.09122  1.0000
  Ca  Ca822     1.0  0.26542  0.75716  0.94572  1.0000
  Ca  Ca823     1.0  0.87592  0.55327  0.52194  1.0000
  Ca  Ca824     1.0  0.45032  0.61727  0.11721  1.0000
  Ca  Ca825     1.0  0.37660  0.14650  0.84375  1.0000
  Ca  Ca826     1.0  0.58315  0.11372  0.26584  1.0000
  Ca  Ca827     1.0  0.94507  0.38004  0.05681  1.0000
  Ca  Ca828     1.0  0.48218  0.20331  0.19434  1.0000
  Ca  Ca829     1.0  0.21401  0.36380  0.05967  1.0000
  Ca  Ca830     1.0  0.97627  0.52074  0.16118  1.0000
  Ca  Ca831     1.0  0.50046  0.02523  0.58101  1.0000
  Ca  Ca832     1.0  0.96627  0.94368  0.82068  1.0000
  Ca  Ca833     1.0  0.28459  0.44555  0.78621  1.0000
  Ca  Ca834     1.0  0.66855  0.19915  0.37174  1.0000
  Ca  Ca835     1.0  0.21078  0.67178  0.11380  1.0000
  Ca  Ca836     1.0  0.93696  0.59445  0.74027  1.0000
  Ca  Ca837     1.0  0.89793  0.65657  0.60111  1.0000
  Ca  Ca838     1.0  0.79223  0.56741  0.04788  1.0000
  Ca  Ca839     1.0  0.23906  0.21218  0.51286  1.0000
  Ca  Ca840     1.0  0.94413  0.01684  0.97349  1.0000
  Ca  Ca841     1.0  0.76603  0.93910  0.08709  1.0000
  Ca  Ca842     1.0  0.57776  0.99347  0.70971  1.0000
  Ca  Ca843     1.0  0.06893  0.11331  0.12520  1.0000
  Ca  Ca844     1.0  0.81443  0.33258  0.03302  1.0000
  Ca  Ca845     1.0  0.91104  0.59106  0.62843  1.0000
  Ca  Ca846     1.0  0.71423  0.16062  0.87192  1.0000
  Ca  Ca847     1.0  0.91432  0.32687  0.89091  1.0000
  Ca  Ca848     1.0  0.16609  0.88830  0.07889  1.0000
  Ca  Ca849     1.0  0.00170  0.67741  0.35059  1.0000
  Ca  Ca850     1.0  0.07824  0.84754  0.12809  1.0000
  Ca  Ca851     1.0  0.65229  0.15731  0.91687  1.0000
  Ca  Ca852     1.0  0.14235  0.36235  0.31601  1.0000
  Ca  Ca853     1.0  0.27556  0.65040  0.16181  1.0000
  Ca  Ca854     1.0  0.28180  0.03927  0.34570  1.0000
  Ca  Ca855     1.0  0.70657  0.44826  0.30782  1.0000
  Ca  Ca856     1.0  0.31077  0.27614  0.46109  1.0000
  Ca  Ca857     1.0  0.21810  0.81450  0.45478  1.0000
  Ca  Ca858     1.0  0.11008  0.19458  0.72454  1.0000
  Ca  Ca859     1.0  0.94661  0.37919  0.57945  1.0000
  Ca  Ca860     1.0  0.55806  0.77884  0.09449  1.0000
  Ca  Ca861     1.0  0.12679  0.94514  0.01492  1.0000
  Ca  Ca862     1.0  0.39606  0.24219  0.55867  1.0000
  Ca  Ca863     1.0  0.93934  0.99640  0.44342  1.0000
  Ca  Ca864     1.0  0.17299  0.81790  0.90672  1.0000
  Ca  Ca865     1.0  0.21596  0.93693  0.84119  1.0000
  Ca  Ca866     1.0  0.23061  0.76962  0.57827  1.0000
  Ca  Ca867     1.0  0.09925  0.64199  0.18689  1.0000
  Ca  Ca868     1.0  0.47300  0.79971  0.54162  1.0000
  Ca  Ca869     1.0  0.87314  0.40547  0.77304  1.0000
  Ca  Ca870     1.0  0.35772  0.92086  0.13965  1.0000
  Ca  Ca871     1.0  0.43073  0.80959  0.44221  1.0000
  Ca  Ca872     1.0  0.38910  0.52913  0.90399  1.0000
  Ca  Ca873     1.0  0.05984  0.69360  0.94195  1.0000
  Ca  Ca874     1.0  0.25353  0.36522  0.36428  1.0000
  Ca  Ca875     1.0  0.54372  0.29168  0.15357  1.0000
  Ca  Ca876     1.0  0.37376  0.45396  0.47396  1.0000
  Ca  Ca877     1.0  0.54814  0.50739  0.81646  1.0000
  Ca  Ca878     1.0  0.06966  0.29698  0.43965  1.0000
  Ca  Ca879     1.0  0.29183  0.31319  0.66446  1.0000
  Ca  Ca880     1.0  0.16463  0.56785  0.23176  1.0000
  Ca  Ca881     1.0  0.17869  0.72282  0.93372  1.0000
  Ca  Ca882     1.0  0.68675  0.94215  0.26600  1.0000
  Ca  Ca883     1.0  0.52518  0.11077  0.16783  1.0000
  Ca  Ca884     1.0  0.72649  0.64799  0.93293  1.0000
  Ca  Ca885     1.0  0.02448  0.69457  0.48164  1.0000
  Ca  Ca886     1.0  0.80158  0.49001  0.88654  1.0000
  Ca  Ca887     1.0  0.49962  0.77134  0.18322  1.0000
  Ca  Ca888     1.0  0.73713  0.97974  0.02727  1.0000
  Ca  Ca889     1.0  0.78296  0.64855  0.56976  1.0000
  Ca  Ca890     1.0  0.14116  0.65543  0.87108  1.0000
  Ca  Ca891     1.0  0.86531  0.76297  0.22263  1.0000
  Ca  Ca892     1.0  0.85345  0.07627  0.74682  1.0000
  Ca  Ca893     1.0  0.22621  0.26102  0.26867  1.0000
  Ca  Ca894     1.0  0.30543  0.38985  0.29835  1.0000
  Ca  Ca895     1.0  0.77972  0.74558  0.54082  1.0000
  Ca  Ca896     1.0  0.21322  0.03179  0.09137  1.0000
  Ca  Ca897     1.0  0.93386  0.72144  0.85480  1.0000
  Ca  Ca898     1.0  0.06544  0.91380  0.60319  1.0000
  Ca  Ca899     1.0  0.43154  0.17967  0.85991  1.0000
  Ca  Ca900     1.0  0.39926  0.38989  0.56697  1.0000
  Ca  Ca901     1.0  0.15930  0.08202  0.62672  1.0000
  Ca  Ca902     1.0  0.99354  0.97509  0.57571  1.0000
  Ca  Ca903     1.0  0.95267  0.95515  0.63712  1.0000
  Ca  Ca904     1.0  0.57595  0.29831  0.05473  1.0000
  Ca  Ca905     1.0  0.72153  0.74991  0.82855  1.0000
  Ca  Ca906     1.0  0.46552  0.26991  0.59683  1.0000
  Ca  Ca907     1.0  0.69755  0.52239  0.32525  1.0000
  Ca  Ca908     1.0  0.60326  0.66464  0.18603  1.0000
  Ca  Ca909     1.0  0.84944  0.39536  0.02747  1.0000
  Ca  Ca910     1.0  0.42383  0.07205  0.38866  1.0000
  Ca  Ca911     1.0  0.35576  0.11783  0.03825  1.0000
  Ca  Ca912     1.0  0.02069  0.05113  0.07910  1.0000
  Ca  Ca913     1.0  0.70048  0.71088  0.66528  1.0000
  Ca  Ca914     1.0  0.52367  0.25599  0.94922  1.0000
  Ca  Ca915     1.0  0.95498  0.98059  0.73242  1.0000
  Ca  Ca916     1.0  0.87258  0.62440  0.84973  1.0000
  Ca  Ca917     1.0  0.12155  0.55997  0.47258  1.0000
  Ca  Ca918     1.0  0.32573  0.95428  0.68451  1.0000
  Ca  Ca919     1.0  0.26472  0.89194  0.59014  1.0000
  Ca  Ca920     1.0  0.84541  0.90475  0.12084  1.0000
  Ca  Ca921     1.0  0.78689  0.36068  0.55499  1.0000
  Ca  Ca922     1.0  0.57298  0.54425  0.02458  1.0000
  Ca  Ca923     1.0  0.46715  0.04004  0.31827  1.0000
  Ca  Ca924     1.0  0.05451  0.23443  0.22351  1.0000
  Ca  Ca925     1.0  0.35227  0.32679  0.34324  1.0000
  Ca  Ca926     1.0  0.23542  0.10419  0.74962  1.0000
  Ca  Ca927     1.0  0.21304  0.88994  0.42818  1.0000
  Ca  Ca928     1.0  0.48542  0.61039  0.21484  1.0000
  Ca  Ca929     1.0  0.83628  0.22594  0.20297  1.0000
  Ca  Ca930     1.0  0.95337  0.22144  0.26596  1.0000
  Ca  Ca931     1.0  0.27976  0.23830  0.88586  1.0000
  Ca  Ca932     1.0  0.75386  0.08560  0.23824  1.0000
  Ca  Ca933     1.0  0.34209  0.12290  0.22244  1.0000
  Ca  Ca934     1.0  0.46933  0.62396  0.29460  1.0000
  Ca  Ca935     1.0  0.56141  0.20052  0.41471  1.0000
  Ca  Ca936     1.0  0.92788  0.65881  0.37343  1.0000
  Ca  Ca937     1.0  0.94833  0.30673  0.08971  1.0000
  Ca  Ca938     1.0  0.82603  0.87950  0.43295  1.0000
  Ca  Ca939     1.0  0.90636  0.45917  0.61470  1.0000
  Ca  Ca940     1.0  0.42996  0.56504  0.28220  1.0000
  Ca  Ca941     1.0  0.41077  0.52216  0.66998  1.0000
  Ca  Ca942     1.0  0.15387  0.73293  0.00812  1.0000
  Ca  Ca943     1.0  0.72445  0.70520  0.50104  1.0000
  Ca  Ca944     1.0  0.40143  0.99217  0.47661  1.0000
  Ca  Ca945     1.0  0.02858  0.86320  0.23436  1.0000
  Ca  Ca946     1.0  0.53164  0.11428  0.45184  1.0000
  Ca  Ca947     1.0  0.29995  0.78523  0.73957  1.0000
  Ca  Ca948     1.0  0.27598  0.03543  0.58008  1.0000
  Ca  Ca949     1.0  0.47123  0.00344  0.71222  1.0000
  Ca  Ca950     1.0  0.81905  0.30056  0.28089  1.0000
  Ca  Ca951     1.0  0.01670  0.69256  0.56294  1.0000
  Ca  Ca952     1.0  0.18456  0.54693  0.65244  1.0000
  Ca  Ca953     1.0  0.92996  0.03551  0.16900  1.0000
  Ca  Ca954     1.0  0.99826  0.53636  0.02792  1.0000
  Ca  Ca955     1.0  0.52196  0.37906  0.77598  1.0000
  Ca  Ca956     1.0  0.10998  0.64931  0.94514  1.0000
  Ca  Ca957     1.0  0.01525  0.37155  0.23760  1.0000
  Ca  Ca958     1.0  0.35745  0.06421  0.48577  1.0000
  Ca  Ca959     1.0  0.35531  0.81931  0.97668  1.0000
  Ca  Ca960     1.0  0.44835  0.29215  0.76479  1.0000
  Ca  Ca961     1.0  0.39166  0.26597  0.64851  1.0000
  Ca  Ca962     1.0  0.88931  0.34027  0.96851  1.0000
  Ca  Ca963     1.0  0.62741  0.25543  0.75725  1.0000
  Ca  Ca964     1.0  0.50838  0.87637  0.83929  1.0000
  Ca  Ca965     1.0  0.29631  0.11992  0.15851  1.0000
  Ca  Ca966     1.0  0.85796  0.89589  0.23375  1.0000
  Ca  Ca967     1.0  0.27548  0.92272  0.92046  1.0000
  Ca  Ca968     1.0  0.48868  0.29026  0.04464  1.0000
  Ca  Ca969     1.0  0.88562  0.93339  0.04372  1.0000
  Ca  Ca970     1.0  0.86059  0.65374  0.33014  1.0000
  Ca  Ca971     1.0  0.11730  0.39566  0.57086  1.0000
  Ca  Ca972     1.0  0.54782  0.90204  0.36115  1.0000
  Ca  Ca973     1.0  0.01626  0.28222  0.55703  1.0000
  Ca  Ca974     1.0  0.49261  0.71963  0.94900  1.0000
  Ca  Ca975     1.0  0.00595  0.50314  0.86041  1.0000
  Ca  Ca976     1.0  0.06995  0.30591  0.32893  1.0000
  Ca  Ca977     1.0  0.30783  0.18385  0.47019  1.0000
  Ca  Ca978     1.0  0.53951  0.00097  0.89094  1.0000
  Ca  Ca979     1.0  0.01534  0.26044  0.29382  1.0000
  Ca  Ca980     1.0  0.18073  0.32037  0.65754  1.0000
  Ca  Ca981     1.0  0.81927  0.21354  0.41057  1.0000
  Ca  Ca982     1.0  0.44176  0.13323  0.96485  1.0000
  Ca  Ca983     1.0  0.72168  0.35377  0.74455  1.0000
  Ca  Ca984     1.0  0.80413  0.48173  0.76514  1.0000
  Ca  Ca985     1.0  0.42175  0.32812  0.51278  1.0000
  Ca  Ca986     1.0  0.82865  0.60083  0.10034  1.0000
  Ca  Ca987     1.0  0.05142  0.92302  0.10366  1.0000
  Ca  Ca988     1.0  0.09020  0.57696  0.15942  1.0000
  Ca  Ca989     1.0  0.87155  0.28980  0.08584  1.0000
  Ca  Ca990     1.0  0.38922  0.03045  0.84232  1.0000
  Ca  Ca991     1.0  0.11380  0.02231  0.13096  1.0000
  Ca  Ca992     1.0  0.10732  0.19752  0.03111  1.0000
  Ca  Ca993     1.0  0.78529  0.48828  0.97338  1.0000
  Ca  Ca994     1.0  0.78428  0.86459  0.60019  1.0000
  Ca  Ca995     1.0  0.89574  0.62692  0.13664  1.0000
  Ca  Ca996     1.0  0.64274  0.84510  0.24886  1.0000
  Ca  Ca997     1.0  0.04921  0.75649  0.41436  1.0000
  Ca  Ca998     1.0  0.33473  0.77449  0.12017  1.0000
  Ca  Ca999     1.0  0.39026  0.22279  0.38079  1.0000
  Ca  Ca1000    1.0  0.11728  0.39882  0.84413  1.0000
  Ca  Ca1001    1.0  0.34978  0.29209  0.53466  1.0000
  Ca  Ca1002    1.0  0.33600  0.11744  0.42842  1.0000
  Ca  Ca1003    1.0  0.07633  0.69153  0.81563  1.0000
  Ca  Ca1004    1.0  0.27194  0.92238  0.43060  1.0000
  Ca  Ca1005    1.0  0.79220  0.67298  0.13244  1.0000
  Ca  Ca1006    1.0  0.91576  0.93022  0.23522  1.0000
  Ca  Ca1007    1.0  0.26972  0.05337  0.05081  1.0000
  Ca  Ca1008    1.0  0.07171  0.52448  0.52730  1.0000
  Ca  Ca1009    1.0  0.79508  0.99546  0.88820  1.0000
  Ca  Ca1010    1.0  0.66061  0.81693  0.97541  1.0000
  Ca  Ca1011    1.0  0.62448  0.47951  0.98030  1.0000
  Ca  Ca1012    1.0  0.90448  0.20054  0.02375  1.0000
  Ca  Ca1013    1.0  0.73055  0.90975  0.97837  1.0000
  Ca  Ca1014    1.0  0.89139  0.71735  0.39524  1.0000
  Ca  Ca1015    1.0  0.01302  0.05421  0.64109  1.0000
  Ca  Ca1016    1.0  0.83548  0.56953  0.98196  1.0000
  Ca  Ca1017    1.0  0.01859  0.61463  0.12562  1.0000
  Ca  Ca1018    1.0  0.72470  0.73214  0.74306  1.0000
  Ca  Ca1019    1.0  0.27178  0.68931  0.89109  1.0000
  Ca  Ca1020    1.0  0.21633  0.55282  0.04480  1.0000
  Ca  Ca1021    1.0  0.10743  0.73643  0.31131  1.0000
  Ca  Ca1022    1.0  0.20455  0.60689  0.82638  1.0000
  Ca  Ca1023    1.0  0.95453  0.52020  0.43760  1.0000
  Ca  Ca1024    1.0  0.71014  0.38644  0.97753  1.0000
  Ca  Ca1025    1.0  0.35727  0.69799  0.60636  1.0000
  Ca  Ca1026    1.0  0.46233  0.12309  0.10369  1.0000
  Ca  Ca1027    1.0  0.64799  0.18935  0.08040  1.0000
  Ca  Ca1028    1.0  0.41810  0.76823  0.88177  1.0000
  Ca  Ca1029    1.0  0.23932  0.95806  0.19201  1.0000
  Ca  Ca1030    1.0  0.71865  0.18535  0.46183  1.0000
  Ca  Ca1031    1.0  0.81347  0.39504  0.20832  1.0000
  Ca  Ca1032    1.0  0.86400  0.82216  0.07008  1.0000
  Ca  Ca1033    1.0  0.80845  0.39732  0.30561  1.0000
  Ca  Ca1034    1.0  0.39852  0.05297  0.59027  1.0000
  Ca  Ca1035    1.0  0.54693  0.69704  0.21369  1.0000
  Ca  Ca1036    1.0  0.60691  0.25380  0.86613  1.0000
  Ca  Ca1037    1.0  0.45070  0.92910  0.02144  1.0000
  Ca  Ca1038    1.0  0.03921  0.25383  0.05284  1.0000
  Ca  Ca1039    1.0  0.50051  0.83436  0.34956  1.0000
  Ca  Ca1040    1.0  0.89528  0.85211  0.57741  1.0000
  Ca  Ca1041    1.0  0.85550  0.97581  0.15754  1.0000
  Ca  Ca1042    1.0  0.14472  0.28619  0.91208  1.0000
  Ca  Ca1043    1.0  0.02966  0.41623  0.88978  1.0000
  Ca  Ca1044    1.0  0.09969  0.82458  0.21598  1.0000
  Ca  Ca1045    1.0  0.48218  0.75061  0.43111  1.0000
  Ca  Ca1046    1.0  0.81029  0.76617  0.33687  1.0000
  Ca  Ca1047    1.0  0.97894  0.22454  0.15780  1.0000
  Ca  Ca1048    1.0  0.94579  0.47124  0.77468  1.0000
  Ca  Ca1049    1.0  0.40528  0.23053  0.92257  1.0000
  Ca  Ca1050    1.0  0.33917  0.20608  0.87756  1.0000
  Ca  Ca1051    1.0  0.38850  0.70625  0.00785  1.0000
  Ca  Ca1052    1.0  0.49160  0.67707  0.13938  1.0000
  Ca  Ca1053    1.0  0.96204  0.38193  0.97658  1.0000
  Ca  Ca1054    1.0  0.43986  0.29356  0.34338  1.0000
  Ca  Ca1055    1.0  0.76983  0.67927  0.68701  1.0000
  Ca  Ca1056    1.0  0.39816  0.98218  0.10956  1.0000
  Ca  Ca1057    1.0  0.95110  0.51069  0.07005  1.0000
  Ca  Ca1058    1.0  0.90836  0.76240  0.09145  1.0000
  Ca  Ca1059    1.0  0.69376  0.80138  0.05255  1.0000
  Ca  Ca1060    1.0  0.26732  0.07759  0.96930  1.0000
  Ca  Ca1061    1.0  0.13934  0.68618  0.12277  1.0000
  Ca  Ca1062    1.0  0.68400  0.89657  0.87047  1.0000
  Ca  Ca1063    1.0  0.90282  0.73535  0.01662  1.0000
  Ca  Ca1064    1.0  0.66571  0.72657  0.98504  1.0000
  Ca  Ca1065    1.0  0.23646  0.68491  0.99684  1.0000
  Ca  Ca1066    1.0  0.26364  0.29693  0.52315  1.0000
  Ca  Ca1067    1.0  0.25942  0.47130  0.14494  1.0000
  Ca  Ca1068    1.0  0.00877  0.07850  0.29358  1.0000
  Ca  Ca1069    1.0  0.50473  0.97160  0.78550  1.0000
  Ca  Ca1070    1.0  0.56952  0.69382  0.92481  1.0000
  Ca  Ca1071    1.0  0.17661  0.14422  0.27184  1.0000
  Ca  Ca1072    1.0  0.42642  0.87406  0.50578  1.0000
  Ca  Ca1073    1.0  0.68821  0.48013  0.38736  1.0000
  Ca  Ca1074    1.0  0.82075  0.69239  0.62363  1.0000
  Ca  Ca1075    1.0  0.69130  0.07678  0.78194  1.0000
  Ca  Ca1076    1.0  0.15728  0.85982  0.48863  1.0000
  Ca  Ca1077    1.0  0.45641  0.52542  0.90218  1.0000
  Ca  Ca1078    1.0  0.51437  0.37119  0.92893  1.0000
  Ca  Ca1079    1.0  0.85895  0.67698  0.10602  1.0000
  Ca  Ca1080    1.0  0.19404  0.74954  0.39130  1.0000
  Ca  Ca1081    1.0  0.75073  0.57293  0.74416  1.0000
  Ca  Ca1082    1.0  0.47078  0.34614  0.29018  1.0000
  Ca  Ca1083    1.0  0.86960  0.02826  0.31310  1.0000
  Ca  Ca1084    1.0  0.95826  0.61519  0.26669  1.0000
  Ca  Ca1085    1.0  0.04256  0.76975  0.84424  1.0000
  Ca  Ca1086    1.0  0.99801  0.57531  0.62282  1.0000
  Ca  Ca1087    1.0  0.74145  0.14452  0.00284  1.0000
  Ca  Ca1088    1.0  0.80351  0.15019  0.25172  1.0000
  Ca  Ca1089    1.0  0.61747  0.85479  0.76722  1.0000
  Ca  Ca1090    1.0  0.80578  0.60779  0.20990  1.0000
  Ca  Ca1091    1.0  0.95166  0.95795  0.91867  1.0000
  Ca  Ca1092    1.0  0.16097  0.99833  0.21565  1.0000
  Ca  Ca1093    1.0  0.65529  0.82052  0.48482  1.0000
  Ca  Ca1094    1.0  0.29099  0.86110  0.38343  1.0000
  Ca  Ca1095    1.0  0.90819  0.17166  0.22662  1.0000
  Ca  Ca1096    1.0  0.18088  0.69133  0.80381  1.0000
  Ca  Ca1097    1.0  0.56984  0.67099  0.04853  1.0000
  Ca  Ca1098    1.0  0.55429  0.18629  0.27976  1.0000
  Ca  Ca1099    1.0  0.88447  0.37138  0.17786  1.0000
  Ca  Ca1100    1.0  0.66680  0.54398  0.20557  1.0000
  Ca  Ca1101    1.0  0.46378  0.95273  0.17631  1.0000
  Ca  Ca1102    1.0  0.79961  0.14680  0.51860  1.0000
  Ca  Ca1103    1.0  0.28459  0.44390  0.44046  1.0000
  Ca  Ca1104    1.0  0.85404  0.00808  0.23811  1.0000
  Ca  Ca1105    1.0  0.44262  0.86314  0.87171  1.0000
  Ca  Ca1106    1.0  0.57541  0.25194  0.52500  1.0000
  Ca  Ca1107    1.0  0.63356  0.09062  0.94358  1.0000
  Ca  Ca1108    1.0  0.69957  0.34590  0.11505  1.0000
  Ca  Ca1109    1.0  0.21336  0.10126  0.06971  1.0000
  Ca  Ca1110    1.0  0.51726  0.30861  0.24581  1.0000
  Ca  Ca1111    1.0  0.88317  0.27702  0.15980  1.0000
  Ca  Ca1112    1.0  0.82299  0.28161  0.53848  1.0000
  Ca  Ca1113    1.0  0.76310  0.03419  0.77059  1.0000
  Ca  Ca1114    1.0  0.91023  0.22954  0.51306  1.0000
  Ca  Ca1115    1.0  0.64365  0.89471  0.30518  1.0000
  Ca  Ca1116    1.0  0.14003  0.54592  0.76432  1.0000
  Ca  Ca1117    1.0  0.56220  0.80005  0.17964  1.0000
  Ca  Ca1118    1.0  0.88759  0.85977  0.48867  1.0000
  Ca  Ca1119    1.0  0.33380  0.62950  0.26847  1.0000
  Ca  Ca1120    1.0  0.26038  0.57871  0.11538  1.0000
  Ca  Ca1121    1.0  0.99456  0.35209  0.47824  1.0000
  Ca  Ca1122    1.0  0.51380  0.99527  0.19531  1.0000
  Ca  Ca1123    1.0  0.74325  0.64018  0.38938  1.0000
  Ca  Ca1124    1.0  0.38547  0.33652  0.74299  1.0000
  Ca  Ca1125    1.0  0.23124  0.62749  0.43333  1.0000
  Ca  Ca1126    1.0  0.64374  0.49944  0.90646  1.0000
  Ca  Ca1127    1.0  0.24747  0.28639  0.39543  1.0000
  Ca  Ca1128    1.0  0.63812  0.72307  0.59123  1.0000
  Ca  Ca1129    1.0  0.54970  0.77466  0.34993  1.0000
  Ca  Ca1130    1.0  0.60340  0.51062  0.46572  1.0000
  Ca  Ca1131    1.0  0.54068  0.17535  0.51696  1.0000
  Ca  Ca1132    1.0  0.86149  0.94821  0.96398  1.0000
  Ca  Ca1133    1.0  0.85938  0.57134  0.42404  1.0000
  Ca  Ca1134    1.0  0.69734  0.82388  0.81145  1.0000
  Ca  Ca1135    1.0  0.07295  0.27045  0.95939  1.0000
  Ca  Ca1136    1.0  0.69816  0.52307  0.14199  1.0000
  Ca  Ca1137    1.0  0.07848  0.60590  0.00782  1.0000
  Ca  Ca1138    1.0  0.04733  0.56337  0.26063  1.0000
  Ca  Ca1139    1.0  0.61483  0.04879  0.59909  1.0000
  Ca  Ca1140    1.0  0.82607  0.10963  0.38596  1.0000
  Ca  Ca1141    1.0  0.00075  0.70192  0.83439  1.0000
  Ca  Ca1142    1.0  0.07257  0.63191  0.28165  1.0000
  Ca  Ca1143    1.0  0.86457  0.86150  0.95439  1.0000
  Ca  Ca1144    1.0  0.89725  0.06023  0.10586  1.0000
  Ca  Ca1145    1.0  0.22125  0.46619  0.47940  1.0000
  Ca  Ca1146    1.0  0.22814  0.56456  0.57942  1.0000
  Ca  Ca1147    1.0  0.71025  0.96662  0.36973  1.0000
  Ca  Ca1148    1.0  0.41091  0.67549  0.88660  1.0000
  Ca  Ca1149    1.0  0.12916  0.59144  0.82537  1.0000
  Ca  Ca1150    1.0  0.30025  0.21905  0.02753  1.0000
  Ca  Ca1151    1.0  0.16595  0.76377  0.29341  1.0000
  Ca  Ca1152    1.0  0.68682  0.90174  0.43663  1.0000
  Ca  Ca1153    1.0  0.74477  0.65787  0.24404  1.0000
  Ca  Ca1154    1.0  0.88153  0.08628  0.49089  1.0000
  Ca  Ca1155    1.0  0.41805  0.71252  0.64889  1.0000
  Ca  Ca1156    1.0  0.04814  0.37917  0.62156  1.0000
  Ca  Ca1157    1.0  0.44939  0.67321  0.58452  1.0000
  Ca  Ca1158    1.0  0.03597  0.88273  0.77822  1.0000
  Ca  Ca1159    1.0  0.98778  0.17249  0.35499  1.0000
  Ca  Ca1160    1.0  0.17477  0.35987  0.55559  1.0000
  Ca  Ca1161    1.0  0.76333  0.08300  0.46673  1.0000
  Ca  Ca1162    1.0  0.74091  0.50941  0.77837  1.0000
  Ca  Ca1163    1.0  0.30061  0.52078  0.40763  1.0000
  Ca  Ca1164    1.0  0.61234  0.64891  0.68862  1.0000
  Ca  Ca1165    1.0  0.24111  0.82597  0.86181  1.0000
  Ca  Ca1166    1.0  0.50134  0.52476  0.45995  1.0000
  Ca  Ca1167    1.0  0.69606  0.16396  0.18656  1.0000
  Ca  Ca1168    1.0  0.70929  0.38617  0.34180  1.0000
  Ca  Ca1169    1.0  0.17995  0.90288  0.97634  1.0000
  Ca  Ca1170    1.0  0.37989  0.41263  0.19375  1.0000
  Ca  Ca1171    1.0  0.64901  0.85484  0.61717  1.0000
  Ca  Ca1172    1.0  0.93178  0.84271  0.83501  1.0000
  Ca  Ca1173    1.0  0.57574  0.60449  0.25681  1.0000
  Ca  Ca1174    1.0  0.83203  0.32908  0.20128  1.0000
  Ca  Ca1175    1.0  0.54791  0.27527  0.59286  1.0000
  Ca  Ca1176    1.0  0.93679  0.09080  0.81090  1.0000
  Ca  Ca1177    1.0  0.22690  0.78671  0.78577  1.0000
  Ca  Ca1178    1.0  0.46277  0.36684  0.13945  1.0000
  Ca  Ca1179    1.0  0.94565  0.67273  0.92626  1.0000
  Ca  Ca1180    1.0  0.38089  0.38029  0.68588  1.0000
  Ca  Ca1181    1.0  0.77516  0.41723  0.59827  1.0000
  Ca  Ca1182    1.0  0.84503  0.19108  0.13183  1.0000
  Ca  Ca1183    1.0  0.48112  0.57028  0.84653  1.0000
  Ca  Ca1184    1.0  0.60372  0.50022  0.62567  1.0000
  Ca  Ca1185    1.0  0.03887  0.45361  0.80668  1.0000
  Ca  Ca1186    1.0  0.87210  0.49787  0.10781  1.0000
  Ca  Ca1187    1.0  0.50303  0.07179  0.65006  1.0000
  Ca  Ca1188    1.0  0.15683  0.39005  0.90525  1.0000
  Ca  Ca1189    1.0  0.98621  0.06899  0.47583  1.0000
  Ca  Ca1190    1.0  0.60604  0.20573  0.80622  1.0000
  Ca  Ca1191    1.0  0.83782  0.08773  0.56998  1.0000
  Ca  Ca1192    1.0  0.59110  0.51949  0.10149  1.0000
  Ca  Ca1193    1.0  0.56958  0.09599  0.34376  1.0000
  Ca  Ca1194    1.0  0.61711  0.57804  0.13774  1.0000
  Ca  Ca1195    1.0  0.55740  0.54468  0.74792  1.0000
  Ca  Ca1196    1.0  0.70357  0.57366  0.67554  1.0000
  Ca  Ca1197    1.0  0.95136  0.20649  0.78627  1.0000
  Ca  Ca1198    1.0  0.73402  0.73786  0.99727  1.0000
  Ca  Ca1199    1.0  0.77839  0.52842  0.56600  1.0000
  Ca  Ca1200    1.0  0.52404  0.50445  0.36300  1.0000
  Ca  Ca1201    1.0  0.93626  0.71264  0.58105  1.0000
  Ca  Ca1202    1.0  0.39445  0.49873  0.02585  1.0000
  Ca  Ca1203    1.0  0.70869  0.23191  0.08211  1.0000
  Ca  Ca1204    1.0  0.25546  0.00307  0.76459  1.0000
  Ca  Ca1205    1.0  0.81026  0.42953  0.71845  1.0000
  Ca  Ca1206    1.0  0.00455  0.00077  0.27314  1.0000
  Ca  Ca1207    1.0  0.95918  0.58144  0.10139  1.0000
  Ca  Ca1208    1.0  0.66784  0.90944  0.77501  1.0000
  Ca  Ca1209    1.0  0.54415  0.62771  0.96850  1.0000
  Ca  Ca1210    1.0  0.01866  0.21545  0.39348  1.0000
  Ca  Ca1211    1.0  0.76423  0.09835  0.72496  1.0000
  Ca  Ca1212    1.0  0.36812  0.43861  0.38227  1.0000
  Ca  Ca1213    1.0  0.01788  0.96758  0.87494  1.0000
  Ca  Ca1214    1.0  0.59587  0.18472  0.70411  1.0000
  Ca  Ca1215    1.0  0.21899  0.24784  0.76471  1.0000
  Ca  Ca1216    1.0  0.94992  0.56920  0.95572  1.0000
  Ca  Ca1217    1.0  0.19919  0.90850  0.63344  1.0000
  Ca  Ca1218    1.0  0.29559  0.48596  0.85081  1.0000
  Ca  Ca1219    1.0  0.33528  0.87354  0.19978  1.0000
  Ca  Ca1220    1.0  0.18465  0.94229  0.27148  1.0000
  Ca  Ca1221    1.0  0.08586  0.55170  0.38232  1.0000
  Ca  Ca1222    1.0  0.04950  0.83203  0.47647  1.0000
  Ca  Ca1223    1.0  0.63038  0.17318  0.17344  1.0000
  Ca  Ca1224    1.0  0.02724  0.11403  0.04584  1.0000
  Ca  Ca1225    1.0  0.03386  0.86713  0.85794  1.0000
  Ca  Ca1226    1.0  0.34769  0.24341  0.26052  1.0000
  Ca  Ca1227    1.0  0.19712  0.00126  0.73110  1.0000
  Ca  Ca1228    1.0  0.39696  0.79290  0.07266  1.0000
  Ca  Ca1229    1.0  0.13813  0.42053  0.09158  1.0000
  Ca  Ca1230    1.0  0.79911  0.76363  0.76717  1.0000
  Ca  Ca1231    1.0  0.02854  0.68802  0.16805  1.0000
  Ca  Ca1232    1.0  0.87660  0.12221  0.11384  1.0000
  Ca  Ca1233    1.0  0.58736  0.07789  0.41819  1.0000
  Ca  Ca1234    1.0  0.53420  0.97975  0.65840  1.0000
  Ca  Ca1235    1.0  0.23391  0.69691  0.44856  1.0000
  Ca  Ca1236    1.0  0.37424  0.52963  0.79767  1.0000
  Ca  Ca1237    1.0  0.18613  0.87411  0.84338  1.0000
  Ca  Ca1238    1.0  0.26090  0.88354  0.27694  1.0000
  Ca  Ca1239    1.0  0.55552  0.91609  0.75252  1.0000
  Ca  Ca1240    1.0  0.49776  0.01420  0.49014  1.0000
  Ca  Ca1241    1.0  0.49813  0.95163  0.31758  1.0000
  Ca  Ca1242    1.0  0.60696  0.99016  0.79677  1.0000
  Ca  Ca1243    1.0  0.85500  0.20465  0.93303  1.0000
  Ca  Ca1244    1.0  0.19677  0.37735  0.24636  1.0000
  Ca  Ca1245    1.0  0.27341  0.36726  0.62789  1.0000
  Ca  Ca1246    1.0  0.51138  0.45145  0.73627  1.0000
  Ca  Ca1247    1.0  0.67929  0.41786  0.58270  1.0000
  Ca  Ca1248    1.0  0.60159  0.30077  0.71278  1.0000
  Ca  Ca1249    1.0  0.26215  0.02511  0.24892  1.0000
  Ca  Ca1250    1.0  0.95573  0.30274  0.57418  1.0000
  Ca  Ca1251    1.0  0.56996  0.75150  0.26569  1.0000
  Ca  Ca1252    1.0  0.13315  0.60683  0.57792  1.0000
  Ca  Ca1253    1.0  0.27708  0.79181  0.50412  1.0000
  Ca  Ca1254    1.0  0.40192  0.89376  0.30776  1.0000
  Ca  Ca1255    1.0  0.01212  0.08354  0.75849  1.0000
  Ca  Ca1256    1.0  0.97533  0.64179  0.71167  1.0000
  Ca  Ca1257    1.0  0.09611  0.69296  0.50446  1.0000
  Ca  Ca1258    1.0  0.81021  0.93145  0.18949  1.0000
  Ca  Ca1259    1.0  0.31182  0.71396  0.13672  1.0000
  Ca  Ca1260    1.0  0.14824  0.47008  0.28455  1.0000
  Ca  Ca1261    1.0  0.82936  0.59788  0.61134  1.0000
  Ca  Ca1262    1.0  0.34585  0.61187  0.19048  1.0000
  Ca  Ca1263    1.0  0.74126  0.19694  0.14588  1.0000
  Ca  Ca1264    1.0  0.07590  0.07074  0.79895  1.0000
  Ca  Ca1265    1.0  0.49915  0.41256  0.99855  1.0000
  Ca  Ca1266    1.0  0.19053  0.65969  0.52301  1.0000
  Ca  Ca1267    1.0  0.92963  0.84312  0.00321  1.0000
  Ca  Ca1268    1.0  0.78909  0.28463  0.79937  1.0000
  Ca  Ca1269    1.0  0.80882  0.79506  0.88263  1.0000
  Ca  Ca1270    1.0  0.13222  0.52061  0.84150  1.0000
  Ca  Ca1271    1.0  0.24002  0.25482  0.97801  1.0000
  Ca  Ca1272    1.0  0.58132  0.32627  0.52388  1.0000
  Ca  Ca1273    1.0  0.64089  0.08489  0.48372  1.0000
  Ca  Ca1274    1.0  0.23320  0.39875  0.13486  1.0000
  Ca  Ca1275    1.0  0.70624  0.01665  0.53431  1.0000
  Ca  Ca1276    1.0  0.21088  0.04447  0.86096  1.0000
  Ca  Ca1277    1.0  0.45227  0.72053  0.22020  1.0000
  Ca  Ca1278    1.0  0.96914  0.21199  0.47825  1.0000
  Ca  Ca1279    1.0  0.03879  0.05477  0.36493  1.0000
  Ca  Ca1280    1.0  0.24414  0.08033  0.41325  1.0000
  Ca  Ca1281    1.0  0.66242  0.20933  0.85744  1.0000
  Ca  Ca1282    1.0  0.14183  0.96141  0.40140  1.0000
  Ca  Ca1283    1.0  0.94206  0.71717  0.17365  1.0000
  Ca  Ca1284    1.0  0.73179  0.04444  0.36515  1.0000
  Ca  Ca1285    1.0  0.60577  0.97145  0.04573  1.0000
  Ca  Ca1286    1.0  0.92486  0.72022  0.47942  1.0000
  Ca  Ca1287    1.0  0.08698  0.64024  0.65729  1.0000
  Ca  Ca1288    1.0  0.52745  0.73780  0.53033  1.0000
  Ca  Ca1289    1.0  0.36064  0.10456  0.12364  1.0000
  Ca  Ca1290    1.0  0.80148  0.62501  0.93305  1.0000
  Ca  Ca1291    1.0  0.84803  0.46553  0.03016  1.0000
  Ca  Ca1292    1.0  0.12005  0.44552  0.47876  1.0000
  Ca  Ca1293    1.0  0.57545  0.26215  0.38792  1.0000
  Ca  Ca1294    1.0  0.01803  0.89511  0.38801  1.0000
  Ca  Ca1295    1.0  0.81960  0.70121  0.82789  1.0000
  Ca  Ca1296    1.0  0.42830  0.27921  0.17398  1.0000
  Ca  Ca1297    1.0  0.63369  0.33204  0.09020  1.0000
  Ca  Ca1298    1.0  0.74401  0.43705  0.88582  1.0000
  Ca  Ca1299    1.0  0.76599  0.61324  0.30761  1.0000
  Ca  Ca1300    1.0  0.71258  0.54760  0.99829  1.0000
  Ca  Ca1301    1.0  0.62667  0.19713  0.98983  1.0000
  Ca  Ca1302    1.0  0.58056  0.35604  0.37836  1.0000
  Ca  Ca1303    1.0  0.70850  0.48799  0.85807  1.0000
  Ca  Ca1304    1.0  0.51309  0.59119  0.91465  1.0000
  Ca  Ca1305    1.0  0.16472  0.30070  0.14299  1.0000
  Ca  Ca1306    1.0  0.08535  0.09406  0.92037  1.0000
  Ca  Ca1307    1.0  0.16399  0.23116  0.98117  1.0000
  Ca  Ca1308    1.0  0.06316  0.47324  0.59000  1.0000
  Ca  Ca1309    1.0  0.46595  0.46525  0.82423  1.0000
  Ca  Ca1310    1.0  0.03593  0.92466  0.68123  1.0000
  Ca  Ca1311    1.0  0.02400  0.54916  0.73369  1.0000
  Ca  Ca1312    1.0  0.71676  0.25425  0.35478  1.0000
  Ca  Ca1313    1.0  0.69940  0.47279  0.96574  1.0000
  Ca  Ca1314    1.0  0.95900  0.78085  0.51558  1.0000
  Ca  Ca1315    1.0  0.65214  0.99905  0.41519  1.0000
  Ca  Ca1316    1.0  0.53722  0.77105  0.59535  1.0000
  Ca  Ca1317    1.0  0.82816  0.81168  0.39905  1.0000
  Ca  Ca1318    1.0  0.21798  0.39449  0.78492  1.0000
  Ca  Ca1319    1.0  0.81821  0.75785  0.98936  1.0000
  Ca  Ca1320    1.0  0.49014  0.17011  0.92437  1.0000
  Ca  Ca1321    1.0  0.76733  0.38516  0.81323  1.0000
  Ca  Ca1322    1.0  0.20100  0.50001  0.85095  1.0000
  Ca  Ca1323    1.0  0.45692  0.54114  0.61053  1.0000
  Ca  Ca1324    1.0  0.21961  0.76746  0.12338  1.0000
  Ca  Ca1325    1.0  0.72324  0.60264  0.09928  1.0000
  Ca  Ca1326    1.0  0.27653  0.97903  0.87011  1.0000
  Ca  Ca1327    1.0  0.72941  0.30814  0.22723  1.0000
  Ca  Ca1328    1.0  0.90930  0.61666  0.51190  1.0000
  Ca  Ca1329    1.0  0.33459  0.30552  0.84531  1.0000
  Ca  Ca1330    1.0  0.09049  0.39664  0.26138  1.0000
  Ca  Ca1331    1.0  0.64821  0.42260  0.38647  1.0000
  Ca  Ca1332    1.0  0.06435  0.97489  0.41848  1.0000
  Ca  Ca1333    1.0  0.26956  0.36616  0.53689  1.0000
  Ca  Ca1334    1.0  0.57887  0.82114  0.58850  1.0000
  Ca  Ca1335    1.0  0.37719  0.73122  0.30536  1.0000
  Ca  Ca1336    1.0  0.68577  0.99360  0.21146  1.0000
  Ca  Ca1337    1.0  0.58776  0.23379  0.11112  1.0000
  Ca  Ca1338    1.0  0.78152  0.80810  0.48893  1.0000
  Ca  Ca1339    1.0  0.04072  0.58824  0.80179  1.0000
  Ca  Ca1340    1.0  0.45404  0.52875  0.08248  1.0000
  Ca  Ca1341    1.0  0.01927  0.17663  0.26283  1.0000
  Ca  Ca1342    1.0  0.13199  0.82535  0.83524  1.0000
  Ca  Ca1343    1.0  0.58816  0.80472  0.91480  1.0000
  Ca  Ca1344    1.0  0.71552  0.34647  0.61355  1.0000
  Ca  Ca1345    1.0  0.63062  0.64143  0.38928  1.0000
  Ca  Ca1346    1.0  0.25106  0.82270  0.70331  1.0000
  Ca  Ca1347    1.0  0.13141  0.45630  0.62517  1.0000
  Ca  Ca1348    1.0  0.49942  0.69246  0.73610  1.0000
  Ca  Ca1349    1.0  0.33816  0.42394  0.62701  1.0000
  Ca  Ca1350    1.0  0.97383  0.42656  0.20992  1.0000
  Ca  Ca1351    1.0  0.80555  0.80390  0.25110  1.0000
  Ca  Ca1352    1.0  0.19626  0.83513  0.04371  1.0000
  Ca  Ca1353    1.0  0.59903  0.90545  0.60502  1.0000
  Ca  Ca1354    1.0  0.01003  0.29799  0.86146  1.0000
  Ca  Ca1355    1.0  0.14188  0.57737  0.92483  1.0000
  Ca  Ca1356    1.0  0.18996  0.71256  0.57614  1.0000
  Ca  Ca1357    1.0  0.88823  0.72039  0.92449  1.0000
  Ca  Ca1358    1.0  0.35921  0.06062  0.70641  1.0000
  Ca  Ca1359    1.0  0.08716  0.14600  0.86993  1.0000
  Ca  Ca1360    1.0  0.33691  0.58968  0.57119  1.0000
  Ca  Ca1361    1.0  0.68227  0.69573  0.43036  1.0000
  Ca  Ca1362    1.0  0.35149  0.94544  0.21764  1.0000
  Ca  Ca1363    1.0  0.35143  0.55846  0.28942  1.0000
  Ca  Ca1364    1.0  0.01378  0.90219  0.92480  1.0000
  Ca  Ca1365    1.0  0.63391  0.06673  0.03340  1.0000
  Ca  Ca1366    1.0  0.65312  0.06238  0.69117  1.0000
  Ca  Ca1367    1.0  0.32898  0.68751  0.39294  1.0000
  Ca  Ca1368    1.0  0.06882  0.34946  0.87452  1.0000
  Ca  Ca1369    1.0  0.96402  0.11761  0.24544  1.0000
  Ca  Ca1370    1.0  0.11621  0.95570  0.68459  1.0000
  Ca  Ca1371    1.0  0.97425  0.77938  0.22795  1.0000
  Ca  Ca1372    1.0  0.60361  0.12652  0.83034  1.0000
  Ca  Ca1373    1.0  0.54646  0.47480  0.43268  1.0000
  Ca  Ca1374    1.0  0.68057  0.21804  0.27550  1.0000
  Ca  Ca1375    1.0  0.46996  0.14080  0.50520  1.0000
  Ca  Ca1376    1.0  0.74095  0.32110  0.84832  1.0000
  Ca  Ca1377    1.0  0.13451  0.79595  0.50289  1.0000
  Ca  Ca1378    1.0  0.55572  0.57887  0.44705  1.0000
  Ca  Ca1379    1.0  0.77678  0.47522  0.13530  1.0000
  Ca  Ca1380    1.0  0.05890  0.07746  0.98159  1.0000
  Ca  Ca1381    1.0  0.64444  0.11930  0.22780  1.0000
  Ca  Ca1382    1.0  0.51705  0.22385  0.08157  1.0000
  Ca  Ca1383    1.0  0.73717  0.44184  0.77892  1.0000
  Ca  Ca1384    1.0  0.56584  0.70140  0.78742  1.0000
  Ca  Ca1385    1.0  0.34357  0.41779  0.92870  1.0000
  Ca  Ca1386    1.0  0.88922  0.43634  0.86931  1.0000
  Ca  Ca1387    1.0  0.42406  0.91106  0.09718  1.0000
  Ca  Ca1388    1.0  0.13384  0.11163  0.38665  1.0000
  Ca  Ca1389    1.0  0.06817  0.34623  0.13472  1.0000
  Ca  Ca1390    1.0  0.74806  0.72512  0.92032  1.0000
  Ca  Ca1391    1.0  0.29072  0.02768  0.68078  1.0000
  Ca  Ca1392    1.0  0.55323  0.36914  0.21966  1.0000
  Ca  Ca1393    1.0  0.59418  0.44497  0.79167  1.0000
  Ca  Ca1394    1.0  0.43433  0.84244  0.36024  1.0000
  Ca  Ca1395    1.0  0.00224  0.88215  0.04314  1.0000
  Ca  Ca1396    1.0  0.83375  0.31752  0.45829  1.0000
  Ca  Ca1397    1.0  0.62546  0.02756  0.24899  1.0000
  Ca  Ca1398    1.0  0.44833  0.30531  0.89358  1.0000
  Ca  Ca1399    1.0  0.07285  0.19138  0.96138  1.0000
  Ca  Ca1400    1.0  0.87540  0.28621  0.60770  1.0000
  Ca  Ca1401    1.0  0.17318  0.95942  0.92353  1.0000
  Ca  Ca1402    1.0  0.74634  0.65769  0.84281  1.0000
  Ca  Ca1403    1.0  0.53610  0.00117  0.07982  1.0000
  Ca  Ca1404    1.0  0.12307  0.73645  0.41996  1.0000
  Ca  Ca1405    1.0  0.31977  0.79295  0.59226  1.0000
  Ca  Ca1406    1.0  0.00550  0.88451  0.14679  1.0000
  Ca  Ca1407    1.0  0.26696  0.50772  0.59732  1.0000
  Ca  Ca1408    1.0  0.72087  0.27642  0.57534  1.0000
  Ca  Ca1409    1.0  0.52143  0.30762  0.86009  1.0000
  Ca  Ca1410    1.0  0.00075  0.25098  0.95027  1.0000
  Ca  Ca1411    1.0  0.46776  0.78332  0.79013  1.0000
  Ca  Ca1412    1.0  0.67528  0.50953  0.73643  1.0000
  Ca  Ca1413    1.0  0.47803  0.92882  0.63603  1.0000
  Ca  Ca1414    1.0  0.19517  0.50893  0.33137  1.0000
  Ca  Ca1415    1.0  0.43781  0.61162  0.92802  1.0000
  Ca  Ca1416    1.0  0.51385  0.21706  0.76457  1.0000
  Ca  Ca1417    1.0  0.13797  0.66187  0.31446  1.0000
  Ca  Ca1418    1.0  0.36792  0.36040  0.88046  1.0000
  Ca  Ca1419    1.0  0.71821  0.22613  0.79883  1.0000
  Ca  Ca1420    1.0  0.86812  0.47266  0.22546  1.0000
  Ca  Ca1421    1.0  0.07022  0.49202  0.10032  1.0000
  Ca  Ca1422    1.0  0.24892  0.44421  0.30206  1.0000
  Ca  Ca1423    1.0  0.67566  0.11324  0.35722  1.0000
  Ca  Ca1424    1.0  0.60925  0.17254  0.46246  1.0000
  Ca  Ca1425    1.0  0.42475  0.42441  0.28234  1.0000
  Ca  Ca1426    1.0  0.60765  0.26998  0.32081  1.0000
  Ca  Ca1427    1.0  0.33981  0.53188  0.62051  1.0000
  Ca  Ca1428    1.0  0.41410  0.50527  0.15001  1.0000
  Ca  Ca1429    1.0  0.35827  0.48629  0.21928  1.0000
  Ca  Ca1430    1.0  0.01662  0.15784  0.51628  1.0000
  Ca  Ca1431    1.0  0.09614  0.84928  0.55412  1.0000
  Ca  Ca1432    1.0  0.82011  0.99047  0.73646  1.0000
  Ca  Ca1433    1.0  0.55737  0.02142  0.31065  1.0000
  Ca  Ca1434    1.0  0.97248  0.23193  0.57613  1.0000
  Ca  Ca1435    1.0  0.46633  0.04584  0.20684  1.0000
  Ca  Ca1436    1.0  0.63980  0.99516  0.50477  1.0000
  Ca  Ca1437    1.0  0.28886  0.52181  0.25483  1.0000
  Ca  Ca1438    1.0  0.42347  0.07351  0.91313  1.0000
  Ca  Ca1439    1.0  0.45534  0.00651  0.92767  1.0000
  Ca  Ca1440    1.0  0.94315  0.07581  0.54322  1.0000
  Ca  Ca1441    1.0  0.16180  0.16704  0.64902  1.0000
  Ca  Ca1442    1.0  0.22619  0.29346  0.61077  1.0000
  Ca  Ca1443    1.0  0.06638  0.44567  0.67563  1.0000
  Ca  Ca1444    1.0  0.34049  0.68805  0.69250  1.0000
  Ca  Ca1445    1.0  0.56586  0.16981  0.59882  1.0000
  Ca  Ca1446    1.0  0.17186  0.61532  0.46733  1.0000
  Ca  Ca1447    1.0  0.86643  0.69770  0.26427  1.0000
  Ca  Ca1448    1.0  0.12065  0.23114  0.81482  1.0000
  Ca  Ca1449    1.0  0.54970  0.12023  0.66473  1.0000
  Ca  Ca1450    1.0  0.62033  0.93058  0.17282  1.0000
  Ca  Ca1451    1.0  0.10089  0.93864  0.85039  1.0000
  Ca  Ca1452    1.0  0.35651  0.90394  0.40047  1.0000
  Ca  Ca1453    1.0  0.43365  0.44420  0.91682  1.0000
  Ca  Ca1454    1.0  0.89043  0.54691  0.16293  1.0000
  Ca  Ca1455    1.0  0.68397  0.25415  0.48570  1.0000
  Ca  Ca1456    1.0  0.70205  0.98569  0.75055  1.0000
  Ca  Ca1457    1.0  0.45006  0.44382  0.63118  1.0000
  Ca  Ca1458    1.0  0.38810  0.07194  0.24856  1.0000
  Ca  Ca1459    1.0  0.34931  0.49469  0.95773  1.0000
  Ca  Ca1460    1.0  0.90766  0.18484  0.73343  1.0000
  Ca  Ca1461    1.0  0.95836  0.11793  0.04267  1.0000
  Ca  Ca1462    1.0  0.79499  0.62722  0.74656  1.0000
  Ca  Ca1463    1.0  0.28378  0.14017  0.53114  1.0000
  Ca  Ca1464    1.0  0.17415  0.29020  0.02039  1.0000
  Ca  Ca1465    1.0  0.87429  0.41948  0.28461  1.0000
  Ca  Ca1466    1.0  0.14360  0.19142  0.90405  1.0000
  Ca  Ca1467    1.0  0.84067  0.54366  0.79167  1.0000
  Ca  Ca1468    1.0  0.38605  0.15795  0.49851  1.0000
  Ca  Ca1469    1.0  0.21593  0.46563  0.67577  1.0000
  Ca  Ca1470    1.0  0.64219  0.72453  0.36365  1.0000
  Ca  Ca1471    1.0  0.70716  0.20340  0.98318  1.0000
  Ca  Ca1472    1.0  0.98763  0.79020  0.32794  1.0000
  Ca  Ca1473    1.0  0.70136  0.10141  0.93420  1.0000
  Ca  Ca1474    1.0  0.87506  0.91765  0.37710  1.0000
  Ca  Ca1475    1.0  0.30355  0.82958  0.12592  1.0000
  Ca  Ca1476    1.0  0.93528  0.31204  0.71042  1.0000
  Ca  Ca1477    1.0  0.62044  0.74678  0.18154  1.0000
  Ca  Ca1478    1.0  0.69738  0.28180  0.16466  1.0000
  Ca  Ca1479    1.0  0.39599  0.72500  0.80634  1.0000
  Ca  Ca1480    1.0  0.11665  0.75259  0.11549  1.0000
  Ca  Ca1481    1.0  0.86656  0.76127  0.60058  1.0000
  Ca  Ca1482    1.0  0.78166  0.80865  0.66555  1.0000
  Ca  Ca1483    1.0  0.75044  0.06238  0.63969  1.0000
  Ca  Ca1484    1.0  0.10591  0.65043  0.75250  1.0000
  Ca  Ca1485    1.0  0.39958  0.59188  0.68485  1.0000
  Ca  Ca1486    1.0  0.96586  0.27006  0.77449  1.0000
  Ca  Ca1487    1.0  0.23879  0.60244  0.65252  1.0000
  Ca  Ca1488    1.0  0.59917  0.88844  0.69524  1.0000
  Ca  Ca1489    1.0  0.14279  0.03876  0.37100  1.0000
  Ca  Ca1490    1.0  0.16238  0.47093  0.54624  1.0000
  Ca  Ca1491    1.0  0.87616  0.03518  0.95029  1.0000
  Ca  Ca1492    1.0  0.25113  0.79679  0.20116  1.0000
  Ca  Ca1493    1.0  0.90787  0.57220  0.25068  1.0000
  Ca  Ca1494    1.0  0.77486  0.49147  0.05348  1.0000
  Ca  Ca1495    1.0  0.45010  0.42598  0.74332  1.0000
  Ca  Ca1496    1.0  0.87377  0.98290  0.60123  1.0000
  Ca  Ca1497    1.0  0.73817  0.15163  0.59096  1.0000
  Ca  Ca1498    1.0  0.96965  0.02224  0.37132  1.0000
  Ca  Ca1499    1.0  0.30099  0.68879  0.00066  1.0000
  Ca  Ca1500    1.0  0.18332  0.86160  0.70476  1.0000
  Ca  Ca1501    1.0  0.63917  0.44584  0.49700  1.0000
  Ca  Ca1502    1.0  0.72580  0.06023  0.11123  1.0000
  Ca  Ca1503    1.0  0.60349  0.47950  0.36661  1.0000
  Ca  Ca1504    1.0  0.62955  0.48182  0.16036  1.0000
  Ca  Ca1505    1.0  0.41534  0.27206  0.82339  1.0000
  Ca  Ca1506    1.0  0.22524  0.91138  0.50373  1.0000
  Ca  Ca1507    1.0  0.43630  0.50838  0.46255  1.0000
  Ca  Ca1508    1.0  0.28335  0.37090  0.98069  1.0000
  Ca  Ca1509    1.0  0.21484  0.51193  0.24462  1.0000
  Ca  Ca1510    1.0  0.53747  0.24166  0.22421  1.0000
  Ca  Ca1511    1.0  0.76165  0.35587  0.27219  1.0000
  Ca  Ca1512    1.0  0.44311  0.37531  0.93442  1.0000
  Ca  Ca1513    1.0  0.78109  0.47646  0.22191  1.0000
  Ca  Ca1514    1.0  0.37219  0.97836  0.38954  1.0000
  Ca  Ca1515    1.0  0.04113  0.70762  0.29556  1.0000
  Ca  Ca1516    1.0  0.04969  0.11247  0.58081  1.0000
  Ca  Ca1517    1.0  0.69391  0.45656  0.17688  1.0000
  Ca  Ca1518    1.0  0.41731  0.27908  0.04204  1.0000
  Ca  Ca1519    1.0  0.19510  0.11453  0.46403  1.0000
  Ca  Ca1520    1.0  0.20871  0.56971  0.72649  1.0000
  Ca  Ca1521    1.0  0.13899  0.66081  0.04302  1.0000
  Ca  Ca1522    1.0  0.39663  0.09790  0.32187  1.0000
  Ca  Ca1523    1.0  0.07085  0.55976  0.65244  1.0000
  Ca  Ca1524    1.0  0.64452  0.35390  0.51497  1.0000
  Ca  Ca1525    1.0  0.12021  0.76835  0.65210  1.0000
  Ca  Ca1526    1.0  0.28771  0.56016  0.19078  1.0000
  Ca  Ca1527    1.0  0.00708  0.97901  0.99642  1.0000
  Ca  Ca1528    1.0  0.65848  0.60633  0.91097  1.0000
  Ca  Ca1529    1.0  0.03898  0.96337  0.16543  1.0000
  Ca  Ca1530    1.0  0.08291  0.75433  0.97282  1.0000
  Ca  Ca1531    1.0  0.42402  0.12182  0.03778  1.0000
  Ca  Ca1532    1.0  0.37388  0.16141  0.33375  1.0000
  Ca  Ca1533    1.0  0.69303  0.86468  0.53399  1.0000
  Ca  Ca1534    1.0  0.70174  0.81115  0.90123  1.0000
  Ca  Ca1535    1.0  0.44297  0.93886  0.81746  1.0000
  Ca  Ca1536    1.0  0.68759  0.02590  0.98018  1.0000
  Ca  Ca1537    1.0  0.96325  0.35861  0.76072  1.0000
  Ca  Ca1538    1.0  0.24354  0.81681  0.36600  1.0000
  Ca  Ca1539    1.0  0.42757  0.45855  0.54476  1.0000
  Ca  Ca1540    1.0  0.66128  0.68266  0.90234  1.0000
  Ca  Ca1541    1.0  0.32190  0.12411  0.88442  1.0000
  Ca  Ca1542    1.0  0.31423  0.96877  0.09697  1.0000
  Ca  Ca1543    1.0  0.73192  0.43044  0.23524  1.0000
  Ca  Ca1544    1.0  0.97349  0.09682  0.68453  1.0000
  Ca  Ca1545    1.0  0.65384  0.94602  0.69831  1.0000
  Ca  Ca1546    1.0  0.81758  0.43602  0.84509  1.0000
  Ca  Ca1547    1.0  0.90358  0.11286  0.72152  1.0000
  Ca  Ca1548    1.0  0.00353  0.51352  0.50187  1.0000
  Ca  Ca1549    1.0  0.52060  0.52120  0.11653  1.0000
  Ca  Ca1550    1.0  0.35715  0.75232  0.95500  1.0000
  Ca  Ca1551    1.0  0.16146  0.43389  0.21497  1.0000
  Ca  Ca1552    1.0  0.64848  0.65532  0.00748  1.0000
  Ca  Ca1553    1.0  0.39931  0.95844  0.72304  1.0000
  Ca  Ca1554    1.0  0.54504  0.40385  0.32713  1.0000
  Ca  Ca1555    1.0  0.50448  0.24013  0.87293  1.0000
  Ca  Ca1556    1.0  0.65122  0.35213  0.73804  1.0000
  Ca  Ca1557    1.0  0.89004  0.38922  0.39295  1.0000
  Ca  Ca1558    1.0  0.45692  0.23714  0.99222  1.0000
  Ca  Ca1559    1.0  0.11358  0.91274  0.44705  1.0000
  Ca  Ca1560    1.0  0.18960  0.62909  0.99841  1.0000
  Ca  Ca1561    1.0  0.48297  0.76611  0.01384  1.0000
  Ca  Ca1562    1.0  0.39541  0.04024  0.03988  1.0000
  Ca  Ca1563    1.0  0.24532  0.72269  0.06932  1.0000
  Ca  Ca1564    1.0  0.89082  0.34393  0.65969  1.0000
  Ca  Ca1565    1.0  0.66095  0.64754  0.75251  1.0000
  Ca  Ca1566    1.0  0.18160  0.89351  0.34908  1.0000
  Ca  Ca1567    1.0  0.97078  0.13738  0.58627  1.0000
  Ca  Ca1568    1.0  0.38216  0.88466  0.99762  1.0000
  Ca  Ca1569    1.0  0.47239  0.03342  0.01165  1.0000
  Ca  Ca1570    1.0  0.33905  0.98688  0.30561  1.0000
  Ca  Ca1571    1.0  0.48222  0.85142  0.73502  1.0000
  Ca  Ca1572    1.0  0.50607  0.87058  0.96599  1.0000
  Ca  Ca1573    1.0  0.28216  0.87890  0.78161  1.0000
  Ca  Ca1574    1.0  0.17563  0.01585  0.62385  1.0000
  Ca  Ca1575    1.0  0.00363  0.09964  0.91681  1.0000
  Ca  Ca1576    1.0  0.19572  0.28731  0.52281  1.0000
  Ca  Ca1577    1.0  0.44743  0.14813  0.31187  1.0000
  Ca  Ca1578    1.0  0.62929  0.89112  0.91686  1.0000
  Ca  Ca1579    1.0  0.74902  0.99528  0.64405  1.0000
  Ca  Ca1580    1.0  0.47362  0.73531  0.08942  1.0000
  Ca  Ca1581    1.0  0.79447  0.21995  0.85618  1.0000
  Ca  Ca1582    1.0  0.39278  0.46128  0.84996  1.0000
  Ca  Ca1583    1.0  0.83825  0.73714  0.14774  1.0000
  Ca  Ca1584    1.0  0.49780  0.11509  0.35321  1.0000
  Ca  Ca1585    1.0  0.99350  0.07729  0.15498  1.0000
  Ca  Ca1586    1.0  0.39342  0.61718  0.77224  1.0000
  Ca  Ca1587    1.0  0.08618  0.09295  0.65181  1.0000
  Ca  Ca1588    1.0  0.73203  0.72589  0.14003  1.0000
  Ca  Ca1589    1.0  0.76923  0.37348  0.67820  1.0000
  Ca  Ca1590    1.0  0.13141  0.32386  0.47106  1.0000
  Ca  Ca1591    1.0  0.95736  0.35803  0.15431  1.0000
  Ca  Ca1592    1.0  0.38857  0.61956  0.60321  1.0000
  Ca  Ca1593    1.0  0.99632  0.52286  0.28559  1.0000
  Ca  Ca1594    1.0  0.57557  0.71140  0.11052  1.0000
  Ca  Ca1595    1.0  0.88319  0.20229  0.65692  1.0000
  Ca  Ca1596    1.0  0.35985  0.60822  0.42140  1.0000
  Ca  Ca1597    1.0  0.34820  0.77667  0.82482  1.0000
  Ca  Ca1598    1.0  0.97436  0.63414  0.80850  1.0000
  Ca  Ca1599    1.0  0.22068  0.18312  0.98944  1.0000
  Ca  Ca1600    1.0  0.08205  0.46697  0.92277  1.0000
  Ca  Ca1601    1.0  0.65838  0.94103  0.11299  1.0000
  Ca  Ca1602    1.0  0.62219  0.84946  0.42416  1.0000
  Ca  Ca1603    1.0  0.30313  0.44744  0.23977  1.0000
  Ca  Ca1604    1.0  0.74501  0.53725  0.26717  1.0000
  Ca  Ca1605    1.0  0.67750  0.80940  0.72965  1.0000
  Ca  Ca1606    1.0  0.16180  0.24201  0.46602  1.0000
  Ca  Ca1607    1.0  0.26929  0.18149  0.81014  1.0000
  Ca  Ca1608    1.0  0.05549  0.15284  0.67129  1.0000
  Ca  Ca1609    1.0  0.15136  0.06976  0.22851  1.0000
  Ca  Ca1610    1.0  0.84745  0.22909  0.79925  1.0000
  Ca  Ca1611    1.0  0.56128  0.82676  0.83928  1.0000
  Ca  Ca1612    1.0  0.41133  0.14804  0.15958  1.0000
  Ca  Ca1613    1.0  0.91359  0.10921  0.90744  1.0000
  Ca  Ca1614    1.0  0.75617  0.80986  0.01315  1.0000
  Ca  Ca1615    1.0  0.65987  0.23341  0.61695  1.0000
  Ca  Ca1616    1.0  0.32569  0.02411  0.95149  1.0000
  Ca  Ca1617    1.0  0.31591  0.52904  0.12457  1.0000
  Ca  Ca1618    1.0  0.31458  0.77021  0.43142  1.0000
  Ca  Ca1619    1.0  0.04450  0.26375  0.13532  1.0000
  Ca  Ca1620    1.0  0.51698  0.80738  0.47368  1.0000
