data_image0
_chemical_formula_structural       CO3CO3CO3CO3CO3CO3CO3CO3CO3CO3CO3CO3CO3CO3CO3CO3CO3CO3CO3CO3CO3CO3CO3CO3CO3CO3CO3CO3CO3CO3CO3CO3CO3CO3CO3CO3CO3CO3CO3CO3CO3CO3CO3CO3CO3CO3CO3CO3CO3CO3CO3CO3CO3CO3CO3CO3CO3CO3CO3CO3CO3CO3CO3CO3CO3CO3CO3CO3CO3CO3CO3CO3CO3CO3CO3CO3CO3CO3CO3CO3CO3CO3CO3CO3CO3CO3CO3CO3CO3CO3CO3CO3CO3CO3CO3CO3CO3CO3CO3CO3CO3CO3CO3CO3CO3CO3CO3CO3CO3CO3CO3CO3CO3CO3CO3CO3CO3CO3CO3CO3CO3CO3CO3CO3CO3CO3CO3CO3CO3CO3CO3CO3CO3CO3CO3CO3CO3CO3CO3CO3CO3CO3CO3CO3CO3CO3CO3CO3CO3CO3CO3CO3CO3CO3CO3CO3CO3CO3CO3CO3CO3CO3CO3CO3CO3CO3CO3CO3CO3CO3CO3CO3CO3CO3CO3CO3CO3CO3CO3CO3CO3CO3CO3CO3CO3CO3CO3CO3CO3CO3CO3CO3CO3CO3CO3CO3CO3CO3CO3CO3CO3CO3CO3CO3CO3CO3CO3CO3CO3CO3CO3CO3CO3CO3CO3CO3CO3CO3CO3CO3CO3CO3CO3CO3CO3CO3CO3CO3CO3CO3CO3CO3CO3CO3CO3CO3CO3CO3CO3CO3CO3CO3CO3CO3CO3CO3CO3CO3CO3CO3CO3CO3CO3CO3CO3CO3CO3CO3CO3CO3CO3CO3CO3CO3CO3CO3CO3CO3CO3CO3CO3CO3CO3CO3CO3CO3CO3CO3CO3CO3CO3CO3CO3CO3CO3CO3CO3CO3CO3CO3CO3CO3CO3CO3CO3CO3CO3CO3CO3CO3CO3CO3CO3CO3CO3CO3CO3CO3CO3CO3CO3CO3CO3CO3CO3CO3CO3CO3CO3CO3CO3CO3CO3CO3CO3CO3CO3CO3CO3CO3CO3CO3CO3CO3CO3CO3CO3CO3CO3CO3CO3CO3CO3CO3CO3CO3CO3CO3CO3CO3CO3CO3CO3CO3CO3CO3CO3CO3CO3CO3CO3CO3CO3CO3CO3CO3CO3CO3CO3CO3CO3CO3CO3CO3CO3CO3CO3CO3CO3CO3CO3CO3CO3CO3CO3CO3CO3CO3CO3CO3CO3CO3CO3CO3CO3CO3CO3CO3CO3CO3CO3CO3CO3CO3CO3CO3CO3CO3CO3CO3CO3CO3CO3CO3CO3CO3CO3CO3CO3CO3CO3CO3CO3CO3CO3CO3CO3CO3CO3CO3CO3CO3CO3CO3CO3CO3CO3CO3CO3CO3CO3CO3CO3CO3CO3CO3CO3CO3CO3CO3CO3CO3CO3CO3CO3CO3CO3CO3CO3CO3CO3CO3CO3CO3CO3CO3CO3CO3CO3CO3CO3CO3CO3CO3CO3CO3CO3CO3CO3CO3CO3CO3CO3CO3CO3CO3CO3CO3CO3CO3CO3CO3CO3CO3CO3CO3CO3CO3CO3CO3CO3CO3CO3CO3CO3CO3CO3CO3CO3CO3CO3CO3CO3CO3CO3CO3CO3CO3CO3CO3CO3CO3CO3CO3CO3CO3CO3CO3CO3CO3CO3CO3CO3CO3CO3CO3CO3CO3CO3CO3CO3CO3CO3CO3CO3CO3CO3CO3CO3CO3CO3CO3CO3CO3CO3CO3CO3CO3CO3CO3CO3CO3CO3CO3CO3CO3CO3CO3CO3CO3CO3CO3CO3CO3CO3CO3CO3CO3CO3CO3CO3CO3CO3CO3CO3CO3CO3CO3CO3CO3CO3CO3CO3CO3CO3CO3CO3CO3CO3CO3CO3CO3CO3CO3CO3CO3CO3CO3CO3CO3CO3CO3CO3CO3CO3CO3CO3CO3CO3CO3CO3CO3CO3CO3CO3CO3CO3CO3CO3CO3CO3CO3CO3CO3CO3CO3CO3CO3CO3CO3CO3CO3CO3CO3CO3CO3CO3CO3CO3CO3CO3CO3CO3CO3CO3CO3CO3CO3CO3CO3CO3CO3CO3CO3CO3CO3CO3CO3CO3CO3CO3CO3CO3CO3CO3CO3CO3CO3CO3CO3CO3CO3CO3CO3CO3CO3CO3CO3CO3CO3CO3CO3CO3CO3CO3CO3CO3CO3CO3CO3CO3CO3CO3CO3CO3CO3CO3CO3CO3CO3CO3CO3CO3CO3CO3CO3CO3CO3CO3CO3CO3CO3CO3CO3CO3CO3CO3CO3CO3CO3CO3CO3CO3CO3CO3CO3CO3CO3CO3CO3CO3CO3CO3CO3CO3CO3CO3CO3CO3CO3CO3CO3CO3CO3CO3CO3CO3CO3CO3CO3CO3CO3CO3CO3CO3CO3CO3CO3CO3CO3CO3CO3CO3CO3CO3CO3CO3CO3CO3CO3CO3CO3CO3CO3CO3CO3CO3CO3CO3CO3CO3CO3CO3CO3CO3CO3CO3CO3CO3CO3CO3CO3CO3CO3CO3CO3CO3CO3CO3CO3CO3CO3CO3CO3CO3CO3CO3CO3CO3CO3CO3CO3CO3CO3CO3CO3CO3CO3CO3CO3CO3CO3CO3CO3CO3CO3CO3CO3CO3CO3CO3CO3CO3CO3CO3CO3CO3CO3CO3CO3CO3CO3CO3CO3CO3CO3CO3CO3CO3CO3CO3CO3CO3CO3CO3CO3CO3CO3CO3CO3CO3CO3CO3CO3CO3CO3CO3CO3CO3CO3CO3CO3CO3CO3CO3CO3CO3CO3CO3CO3CO3CO3CO3CO3CO3CO3CO3CO3CO3CO3CO3CO3CO3CO3CO3CO3CO3CO3CO3CO3CO3CO3CO3CO3CO3CO3CO3CO3CO3CO3CO3CO3CO3CO3CO3CO3CO3CO3CO3CO3CO3CO3CO3CO3CO3CO3CO3CO3CO3CO3CO3CO3CO3CO3CO3CO3CO3CO3CO3CO3CO3CO3CO3CO3CO3CO3CO3CO3CO3CO3CO3CO3CO3CO3CO3CO3CO3CO3CO3CO3CO3CO3CO3CO3CO3CO3CO3CO3CO3CO3CO3CO3CO3CO3CO3CO3CO3CO3CO3CO3CO3CO3CO3CO3CO3CO3CO3CO3CO3CO3CO3CO3CO3CO3CO3CO3CO3CO3CO3CO3CO3CO3CO3CO3CO3CO3CO3CO3CO3CO3CO3CO3CO3CO3CO3CO3CO3CO3CO3CO3CO3CO3CO3CO3CO3CO3CO3CO3CO3CO3CO3CO3CO3CO3CO3CO3CO3CO3CO3CO3CO3CO3CO3CO3CO3CO3CO3CO3CO3CO3CO3CO3CO3CO3CO3CO3CO3CO3CO3CO3CO3CO3CO3CO3CO3CO3CO3CO3CO3CO3CO3CO3CO3CO3CO3CO3CO3CO3CO3CO3CO3CO3CO3CO3CO3CO3CO3CO3CO3CO3CO3CO3CO3CO3CO3CO3CO3CO3CO3CO3CO3CO3CO3CO3CO3CO3CO3CO3CO3CO3CO3CO3CO3CO3CO3CO3CO3CO3CO3CO3CO3CO3CO3CO3CO3CO3CO3CO3CO3CO3CO3CO3CO3CO3CO3CO3CO3CO3CO3CO3CO3CO3CO3CO3CO3CO3CO3CO3CO3CO3CO3CO3CO3CO3CO3CO3CO3CO3CO3CO3CO3CO3CO3CO3CO3CO3CO3CO3CO3CO3CO3CO3CO3CO3CO3CO3CO3CO3CO3CO3CO3CO3CO3CO3CO3CO3CO3CO3CO3CO3CO3CO3CO3CO3CO3CO3CO3CO3CO3CO3CO3CO3CO3CO3CO3CO3CO3CO3CO3CO3CO3CO3CO3CO3CO3CO3CO3CO3CO3CO3CO3CO3CO3CO3CO3CO3CO3CO3CO3CO3CO3CO3CO3CO3CO3CO3CO3CO3CO3CO3CO3CO3CO3CO3CO3CO3CO3CO3CO3CO3CO3CO3CO3CO3CO3CO3CO3CO3CO3CO3CO3CO3CO3CO3CO3CO3CO3CO3CO3CO3CO3CO3CO3CO3CO3CO3CO3CO3CO3CO3CO3CO3CO3CO3CO3CO3CO3CO3CO3CO3CO3CO3CO3CO3CO3CO3CO3CO3CO3CO3CO3CO3CO3CO3CO3CO3CO3CO3CO3CO3CO3CO3CO3CO3CO3CO3CO3CO3CO3CO3CO3CO3CO3CO3CO3CO3CO3CO3CO3CO3CO3CO3CO3CO3CO3CO3CO3CO3CO3CO3CO3CO3CO3CO3CO3CO3CO3CO3CO3CO3CO3CO3CO3CO3CO3CO3CO3CO3CO3CO3CO3CO3CO3CO3CO3CO3CO3CO3CO3CO3CO3CO3CO3CO3CO3CO3CO3CO3CO3CO3CO3CO3CO3CO3CO3CO3CO3CO3CO3CO3CO3CO3CO3CO3CO3CO3CO3CO3CO3CO3CO3CO3CO3CO3CO3CO3CO3CO3CO3CO3CO3CO3CO3CO3CO3CO3CO3CO3CO3CO3CO3CO3CO3CO3CO3CO3CO3CO3CO3CO3CO3CO3CO3CO3CO3CO3CO3CO3CO3CO3CO3CO3CO3CO3CO3CO3CO3CO3CO3CO3CO3CO3CO3CO3CO3CO3CO3CO3CO3CO3CO3CO3CO3CO3CO3CO3CO3CO3CO3CO3CO3CO3CO3CO3CO3CO3CO3CO3CO3CO3CO3CO3CO3CO3CO3CO3CO3CO3CO3CO3CO3CO3CO3CO3CO3CO3CO3CO3CO3CO3CO3CO3CO3CO3CO3CO3CO3CO3CO3CO3CO3CO3CO3CO3CO3CO3CO3CO3CO3CO3CO3CO3CO3CO3CO3CO3CO3CO3CO3CO3CO3CO3CO3CO3CO3CO3CO3CO3CO3CO3CO3CO3CO3CO3CO3CO3CO3CO3CO3CO3CO3CO3CO3CO3CO3CO3CO3CO3CO3CO3CO3CO3CO3CO3CO3CO3CO3CO3CO3CO3CO3CO3CO3CO3CO3CO3CO3CO3CO3CO3CO3CO3CO3CO3CO3CO3CO3CO3CO3CO3CO3CO3CO3CO3CO3CO3CO3CO3CO3CO3CO3CO3CO3CO3CO3CO3CO3CO3CO3CO3
_chemical_formula_sum              "C1620 O4860"
_cell_length_a       52.7945
_cell_length_b       54.7943
_cell_length_c       45.1953
_cell_angle_alpha    90
_cell_angle_beta     90
_cell_angle_gamma    90

_space_group_name_H-M_alt    "P 1"
_space_group_IT_number       1

loop_
  _space_group_symop_operation_xyz
  'x, y, z'

loop_
  _atom_site_type_symbol
  _atom_site_label
  _atom_site_symmetry_multiplicity
  _atom_site_fract_x
  _atom_site_fract_y
  _atom_site_fract_z
  _atom_site_occupancy
  C   C1        1.0  0.72887  0.31029  0.78809  1.0000
  O   O1        1.0  0.75244  0.30847  0.79477  1.0000
  O   O2        1.0  0.72211  0.31186  0.76087  1.0000
  O   O3        1.0  0.71209  0.31075  0.80865  1.0000
  C   C2        1.0  0.16209  0.18431  0.01156  1.0000
  O   O4        1.0  0.18168  0.19589  0.02088  1.0000
  O   O5        1.0  0.14350  0.19607  0.00008  1.0000
  O   O6        1.0  0.16108  0.16096  0.01378  1.0000
  C   C3        1.0  0.90130  0.27870  0.95017  1.0000
  O   O7        1.0  0.88777  0.29310  0.96606  1.0000
  O   O8        1.0  0.89315  0.27154  0.92485  1.0000
  O   O9        1.0  0.92288  0.27129  0.95971  1.0000
  C   C4        1.0  0.02434  0.74689  0.96568  1.0000
  O   O10       1.0  0.03168  0.72455  0.96586  1.0000
  O   O11       1.0  0.00071  0.75199  0.96839  1.0000
  O   O12       1.0  0.04064  0.76414  0.96306  1.0000
  C   C5        1.0  0.19444  0.27665  0.93869  1.0000
  O   O13       1.0  0.18585  0.29849  0.94103  1.0000
  O   O14       1.0  0.21826  0.27257  0.94157  1.0000
  O   O15       1.0  0.17918  0.25887  0.93371  1.0000
  C   C6        1.0  0.20972  0.91733  0.69161  1.0000
  O   O16       1.0  0.21813  0.92210  0.71764  1.0000
  O   O17       1.0  0.21728  0.92996  0.66937  1.0000
  O   O18       1.0  0.19385  0.89986  0.68781  1.0000
  C   C7        1.0  0.83774  0.30996  0.33725  1.0000
  O   O19       1.0  0.85115  0.31949  0.35795  1.0000
  O   O20       1.0  0.82542  0.32373  0.31933  1.0000
  O   O21       1.0  0.83678  0.28667  0.33436  1.0000
  C   C8        1.0  0.43485  0.68676  0.83642  1.0000
  O   O22       1.0  0.44331  0.69543  0.86089  1.0000
  O   O23       1.0  0.45013  0.68251  0.81493  1.0000
  O   O24       1.0  0.41110  0.68232  0.83344  1.0000
  C   C9        1.0  0.06806  0.51824  0.45743  1.0000
  O   O25       1.0  0.08015  0.49908  0.44917  1.0000
  O   O26       1.0  0.07994  0.53848  0.46100  1.0000
  O   O27       1.0  0.04414  0.51712  0.46237  1.0000
  C   C10       1.0  0.68311  0.72471  0.18825  1.0000
  O   O28       1.0  0.70526  0.71854  0.17922  1.0000
  O   O29       1.0  0.66548  0.72915  0.16943  1.0000
  O   O30       1.0  0.67866  0.72668  0.21607  1.0000
  C   C11       1.0  0.71331  0.52808  0.53987  1.0000
  O   O31       1.0  0.73478  0.53428  0.55088  1.0000
  O   O32       1.0  0.71239  0.51309  0.51807  1.0000
  O   O33       1.0  0.69276  0.53706  0.55049  1.0000
  C   C12       1.0  0.96232  0.92598  0.51102  1.0000
  O   O34       1.0  0.95261  0.94121  0.49265  1.0000
  O   O35       1.0  0.95159  0.92218  0.53610  1.0000
  O   O36       1.0  0.98287  0.91471  0.50442  1.0000
  C   C13       1.0  0.83417  0.26315  0.84128  1.0000
  O   O37       1.0  0.83629  0.24135  0.85140  1.0000
  O   O38       1.0  0.83670  0.28148  0.85873  1.0000
  O   O39       1.0  0.82971  0.26662  0.81367  1.0000
  C   C14       1.0  0.17763  0.48945  0.18059  1.0000
  O   O40       1.0  0.16603  0.46915  0.17632  1.0000
  O   O41       1.0  0.19024  0.49286  0.20453  1.0000
  O   O42       1.0  0.17652  0.50637  0.16098  1.0000
  C   C15       1.0  0.81822  0.73076  0.58195  1.0000
  O   O43       1.0  0.83821  0.71751  0.58375  1.0000
  O   O44       1.0  0.81883  0.75102  0.56769  1.0000
  O   O45       1.0  0.79767  0.72387  0.59464  1.0000
  C   C16       1.0  0.34060  0.80969  0.18421  1.0000
  O   O46       1.0  0.34975  0.83069  0.19090  1.0000
  O   O47       1.0  0.33166  0.80588  0.15820  1.0000
  O   O48       1.0  0.34018  0.79257  0.20361  1.0000
  C   C17       1.0  0.26814  0.31180  0.45583  1.0000
  O   O49       1.0  0.24930  0.32661  0.45611  1.0000
  O   O50       1.0  0.26727  0.29204  0.47107  1.0000
  O   O51       1.0  0.28795  0.31684  0.44051  1.0000
  C   C18       1.0  0.35539  0.02269  0.09077  1.0000
  O   O52       1.0  0.37149  0.02323  0.11205  1.0000
  O   O53       1.0  0.35769  0.03746  0.06888  1.0000
  O   O54       1.0  0.33699  0.00738  0.09138  1.0000
  C   C19       1.0  0.63962  0.90750  0.23836  1.0000
  O   O55       1.0  0.63068  0.92437  0.22164  1.0000
  O   O56       1.0  0.65059  0.91311  0.26279  1.0000
  O   O57       1.0  0.63739  0.88502  0.23079  1.0000
  C   C20       1.0  0.15465  0.00155  0.68416  1.0000
  O   O58       1.0  0.17744  0.00381  0.67460  1.0000
  O   O59       1.0  0.13806  0.99029  0.66851  1.0000
  O   O60       1.0  0.14841  0.01073  0.70926  1.0000
  C   C21       1.0  0.71573  0.92102  0.10614  1.0000
  O   O61       1.0  0.72634  0.90990  0.08442  1.0000
  O   O62       1.0  0.69408  0.91383  0.11569  1.0000
  O   O63       1.0  0.72689  0.93918  0.11849  1.0000
  C   C22       1.0  0.59869  0.80314  0.52861  1.0000
  O   O64       1.0  0.60727  0.78377  0.54106  1.0000
  O   O65       1.0  0.58857  0.80187  0.50282  1.0000
  O   O66       1.0  0.60024  0.82378  0.54193  1.0000
  C   C23       1.0  0.25023  0.50299  0.81219  1.0000
  O   O67       1.0  0.24174  0.51409  0.83516  1.0000
  O   O68       1.0  0.26275  0.48305  0.81510  1.0000
  O   O69       1.0  0.24639  0.51195  0.78632  1.0000
  C   C24       1.0  0.23577  0.62146  0.36693  1.0000
  O   O70       1.0  0.23393  0.60379  0.38546  1.0000
  O   O71       1.0  0.23055  0.64333  0.37510  1.0000
  O   O72       1.0  0.24304  0.61729  0.34029  1.0000
  C   C25       1.0  0.80567  0.53406  0.41436  1.0000
  O   O73       1.0  0.78974  0.52305  0.43118  1.0000
  O   O74       1.0  0.82611  0.54296  0.42534  1.0000
  O   O75       1.0  0.80115  0.53618  0.38656  1.0000
  C   C26       1.0  0.74947  0.41079  0.05615  1.0000
  O   O76       1.0  0.75210  0.40851  0.08426  1.0000
  O   O77       1.0  0.73669  0.42872  0.04557  1.0000
  O   O78       1.0  0.75963  0.39517  0.03862  1.0000
  C   C27       1.0  0.59352  0.48711  0.85475  1.0000
  O   O79       1.0  0.59908  0.47123  0.83489  1.0000
  O   O80       1.0  0.57023  0.49166  0.86082  1.0000
  O   O81       1.0  0.61124  0.49858  0.86835  1.0000
  C   C28       1.0  0.20105  0.67245  0.62561  1.0000
  O   O82       1.0  0.19343  0.68374  0.64887  1.0000
  O   O83       1.0  0.22080  0.65882  0.62681  1.0000
  O   O84       1.0  0.18880  0.67466  0.60122  1.0000
  C   C29       1.0  0.87482  0.53543  0.46520  1.0000
  O   O85       1.0  0.85752  0.55090  0.47206  1.0000
  O   O86       1.0  0.87648  0.52744  0.43857  1.0000
  O   O87       1.0  0.89031  0.52778  0.48504  1.0000
  C   C30       1.0  0.62270  0.17174  0.37612  1.0000
  O   O88       1.0  0.60696  0.15470  0.38263  1.0000
  O   O89       1.0  0.62834  0.17596  0.34896  1.0000
  O   O90       1.0  0.63294  0.18444  0.39678  1.0000
  C   C31       1.0  0.25510  0.80551  0.97265  1.0000
  O   O91       1.0  0.26276  0.82394  0.98774  1.0000
  O   O92       1.0  0.26811  0.79795  0.95047  1.0000
  O   O93       1.0  0.23431  0.79477  0.97959  1.0000
  C   C32       1.0  0.24447  0.05234  0.13797  1.0000
  O   O94       1.0  0.26269  0.05088  0.15670  1.0000
  O   O95       1.0  0.22151  0.05413  0.14709  1.0000
  O   O96       1.0  0.24919  0.05181  0.11010  1.0000
  C   C33       1.0  0.78900  0.69417  0.53151  1.0000
  O   O97       1.0  0.76621  0.70137  0.53618  1.0000
  O   O98       1.0  0.80679  0.70988  0.52796  1.0000
  O   O99       1.0  0.79397  0.67126  0.53012  1.0000
  C   C34       1.0  0.96399  0.61803  0.94337  1.0000
  O   O100      1.0  0.97223  0.60271  0.92416  1.0000
  O   O101      1.0  0.97190  0.64019  0.94302  1.0000
  O   O102      1.0  0.94782  0.61121  0.96291  1.0000
  C   C35       1.0  0.44234  0.00881  0.15903  1.0000
  O   O103      1.0  0.46297  0.99659  0.16160  1.0000
  O   O104      1.0  0.43480  0.02250  0.18034  1.0000
  O   O105      1.0  0.42934  0.00748  0.13507  1.0000
  C   C36       1.0  0.16528  0.56775  0.43478  1.0000
  O   O106      1.0  0.16936  0.56290  0.46217  1.0000
  O   O107      1.0  0.15808  0.58921  0.42710  1.0000
  O   O108      1.0  0.16823  0.55108  0.41512  1.0000
  C   C37       1.0  0.74939  0.54573  0.81925  1.0000
  O   O109      1.0  0.76108  0.55954  0.83770  1.0000
  O   O110      1.0  0.73978  0.52545  0.82800  1.0000
  O   O111      1.0  0.74728  0.55222  0.79206  1.0000
  C   C38       1.0  0.84990  0.67452  0.43041  1.0000
  O   O112      1.0  0.86578  0.69187  0.42589  1.0000
  O   O113      1.0  0.85138  0.66162  0.45407  1.0000
  O   O114      1.0  0.83266  0.66993  0.41115  1.0000
  C   C39       1.0  0.97053  0.23428  0.42161  1.0000
  O   O115      1.0  0.98528  0.21657  0.42861  1.0000
  O   O116      1.0  0.97843  0.25124  0.40431  1.0000
  O   O117      1.0  0.94782  0.23495  0.43176  1.0000
  C   C40       1.0  0.67957  0.73201  0.47830  1.0000
  O   O118      1.0  0.68272  0.73758  0.45095  1.0000
  O   O119      1.0  0.67962  0.70954  0.48634  1.0000
  O   O120      1.0  0.67618  0.74891  0.49758  1.0000
  C   C41       1.0  0.38033  0.86376  0.35663  1.0000
  O   O121      1.0  0.40165  0.87499  0.35525  1.0000
  O   O122      1.0  0.35976  0.87588  0.36034  1.0000
  O   O123      1.0  0.37959  0.84042  0.35431  1.0000
  C   C42       1.0  0.61416  0.99178  0.92758  1.0000
  O   O124      1.0  0.63157  0.99726  0.90888  1.0000
  O   O125      1.0  0.59190  0.00094  0.92483  1.0000
  O   O126      1.0  0.61897  0.97700  0.94889  1.0000
  C   C43       1.0  0.34766  0.98100  0.86568  1.0000
  O   O127      1.0  0.35665  0.96707  0.88597  1.0000
  O   O128      1.0  0.36214  0.99642  0.85258  1.0000
  O   O129      1.0  0.32422  0.97939  0.85834  1.0000
  C   C44       1.0  0.43540  0.72377  0.40780  1.0000
  O   O130      1.0  0.45735  0.71500  0.41382  1.0000
  O   O131      1.0  0.42948  0.72879  0.38093  1.0000
  O   O132      1.0  0.41927  0.72731  0.42863  1.0000
  C   C45       1.0  0.15928  0.63606  0.11141  1.0000
  O   O133      1.0  0.16121  0.61291  0.11525  1.0000
  O   O134      1.0  0.14429  0.64451  0.09152  1.0000
  O   O135      1.0  0.17222  0.65075  0.12758  1.0000
  C   C46       1.0  0.71240  0.27197  0.42104  1.0000
  O   O136      1.0  0.70630  0.27636  0.39406  1.0000
  O   O137      1.0  0.73140  0.28295  0.43276  1.0000
  O   O138      1.0  0.69940  0.25673  0.43637  1.0000
  C   C47       1.0  0.86899  0.21459  0.36107  1.0000
  O   O139      1.0  0.88102  0.23489  0.36309  1.0000
  O   O140      1.0  0.87702  0.19783  0.34357  1.0000
  O   O141      1.0  0.84903  0.21099  0.37671  1.0000
  C   C48       1.0  0.63481  0.29762  0.49244  1.0000
  O   O142      1.0  0.64691  0.27956  0.50375  1.0000
  O   O143      1.0  0.63483  0.30086  0.46430  1.0000
  O   O144      1.0  0.62249  0.31232  0.50925  1.0000
  C   C49       1.0  0.19633  0.13607  0.78817  1.0000
  O   O145      1.0  0.19614  0.11731  0.80519  1.0000
  O   O146      1.0  0.18877  0.15682  0.79797  1.0000
  O   O147      1.0  0.20386  0.13403  0.76127  1.0000
  C   C50       1.0  0.45450  0.34284  0.34835  1.0000
  O   O148      1.0  0.47227  0.32716  0.34453  1.0000
  O   O149      1.0  0.45929  0.36574  0.34618  1.0000
  O   O150      1.0  0.43190  0.33562  0.35412  1.0000
  C   C51       1.0  0.02701  0.33146  0.42863  1.0000
  O   O151      1.0  0.04156  0.31949  0.41110  1.0000
  O   O152      1.0  0.02576  0.35481  0.42680  1.0000
  O   O153      1.0  0.01352  0.32006  0.44782  1.0000
  C   C52       1.0  0.78968  0.96314  0.67603  1.0000
  O   O154      1.0  0.79878  0.96387  0.70237  1.0000
  O   O155      1.0  0.78129  0.94294  0.66548  1.0000
  O   O156      1.0  0.78915  0.98258  0.66017  1.0000
  C   C53       1.0  0.02526  0.72802  0.79025  1.0000
  O   O157      1.0  0.01908  0.72987  0.76286  1.0000
  O   O158      1.0  0.02209  0.74622  0.80776  1.0000
  O   O159      1.0  0.03481  0.70805  0.80006  1.0000
  C   C54       1.0  0.60736  0.42427  0.55709  1.0000
  O   O160      1.0  0.61542  0.42466  0.58389  1.0000
  O   O161      1.0  0.61101  0.44273  0.54013  1.0000
  O   O162      1.0  0.59543  0.40549  0.54734  1.0000
  C   C55       1.0  0.81547  0.44016  0.25510  1.0000
  O   O163      1.0  0.82866  0.42827  0.27412  1.0000
  O   O164      1.0  0.80450  0.46013  0.26262  1.0000
  O   O165      1.0  0.81314  0.43202  0.22860  1.0000
  C   C56       1.0  0.33083  0.83342  0.90750  1.0000
  O   O166      1.0  0.34947  0.83656  0.92535  1.0000
  O   O167      1.0  0.32974  0.84561  0.88328  1.0000
  O   O168      1.0  0.31315  0.81825  0.91402  1.0000
  C   C57       1.0  0.30568  0.45861  0.08841  1.0000
  O   O169      1.0  0.28498  0.46417  0.10171  1.0000
  O   O170      1.0  0.31074  0.46799  0.06305  1.0000
  O   O171      1.0  0.32134  0.44370  0.10048  1.0000
  C   C58       1.0  0.07198  0.98545  0.87468  1.0000
  O   O172      1.0  0.09391  0.97551  0.87708  1.0000
  O   O173      1.0  0.06564  0.99611  0.85049  1.0000
  O   O174      1.0  0.05630  0.98452  0.89637  1.0000
  C   C59       1.0  0.55036  0.87151  0.57984  1.0000
  O   O175      1.0  0.57183  0.86281  0.57167  1.0000
  O   O176      1.0  0.54856  0.89400  0.58755  1.0000
  O   O177      1.0  0.53074  0.85768  0.58056  1.0000
  C   C60       1.0  0.56326  0.29430  0.22262  1.0000
  O   O178      1.0  0.56264  0.30458  0.24814  1.0000
  O   O179      1.0  0.54290  0.28547  0.21136  1.0000
  O   O180      1.0  0.58421  0.29301  0.20827  1.0000
  C   C61       1.0  0.74381  0.65931  0.31748  1.0000
  O   O181      1.0  0.75805  0.65368  0.29549  1.0000
  O   O182      1.0  0.73746  0.68164  0.32183  1.0000
  O   O183      1.0  0.73609  0.64262  0.33528  1.0000
  C   C62       1.0  0.22401  0.62071  0.15063  1.0000
  O   O184      1.0  0.22576  0.60085  0.13568  1.0000
  O   O185      1.0  0.23410  0.64041  0.14077  1.0000
  O   O186      1.0  0.21225  0.62083  0.17550  1.0000
  C   C63       1.0  0.39160  0.13043  0.27339  1.0000
  O   O187      1.0  0.39981  0.14219  0.29602  1.0000
  O   O188      1.0  0.37815  0.14142  0.25382  1.0000
  O   O189      1.0  0.39685  0.10769  0.27033  1.0000
  C   C64       1.0  0.00365  0.63452  0.59151  1.0000
  O   O190      1.0  0.99944  0.65760  0.59166  1.0000
  O   O191      1.0  0.01588  0.62479  0.56997  1.0000
  O   O192      1.0  0.99565  0.62117  0.61290  1.0000
  C   C65       1.0  0.39211  0.19446  0.16832  1.0000
  O   O193      1.0  0.40470  0.18743  0.19108  1.0000
  O   O194      1.0  0.37141  0.20645  0.17167  1.0000
  O   O195      1.0  0.40033  0.18970  0.14222  1.0000
  C   C66       1.0  0.43550  0.01545  0.05801  1.0000
  O   O196      1.0  0.45632  0.02276  0.06974  1.0000
  O   O197      1.0  0.43434  0.01151  0.03003  1.0000
  O   O198      1.0  0.41593  0.01185  0.07429  1.0000
  C   C67       1.0  0.58025  0.74452  0.57397  1.0000
  O   O199      1.0  0.59762  0.73758  0.55595  1.0000
  O   O200      1.0  0.58631  0.75405  0.59894  1.0000
  O   O201      1.0  0.55683  0.74204  0.56695  1.0000
  C   C68       1.0  0.68786  0.64732  0.40202  1.0000
  O   O202      1.0  0.69650  0.64259  0.42795  1.0000
  O   O203      1.0  0.66911  0.66203  0.39894  1.0000
  O   O204      1.0  0.69810  0.63752  0.37917  1.0000
  C   C69       1.0  0.34262  0.00402  0.67912  1.0000
  O   O205      1.0  0.33293  0.01776  0.65908  1.0000
  O   O206      1.0  0.33904  0.00894  0.70658  1.0000
  O   O207      1.0  0.35587  0.98535  0.67170  1.0000
  C   C70       1.0  0.36039  0.95777  0.51185  1.0000
  O   O208      1.0  0.37654  0.95704  0.53307  1.0000
  O   O209      1.0  0.36554  0.96962  0.48809  1.0000
  O   O210      1.0  0.33900  0.94683  0.51449  1.0000
  C   C71       1.0  0.63558  0.28579  0.37558  1.0000
  O   O211      1.0  0.64567  0.29223  0.40022  1.0000
  O   O212      1.0  0.64162  0.29689  0.35157  1.0000
  O   O213      1.0  0.61943  0.26827  0.37495  1.0000
  C   C72       1.0  0.44630  0.12808  0.65411  1.0000
  O   O214      1.0  0.44435  0.10473  0.65517  1.0000
  O   O215      1.0  0.42695  0.14113  0.64737  1.0000
  O   O216      1.0  0.46754  0.13837  0.66008  1.0000
  C   C73       1.0  0.96747  0.47920  0.90795  1.0000
  O   O217      1.0  0.96201  0.45647  0.91062  1.0000
  O   O218      1.0  0.96992  0.48866  0.88211  1.0000
  O   O219      1.0  0.97026  0.49251  0.93110  1.0000
  C   C74       1.0  0.87887  0.00133  0.99893  1.0000
  O   O220      1.0  0.90112  0.00831  0.99121  1.0000
  O   O221      1.0  0.87320  0.99951  0.02647  1.0000
  O   O222      1.0  0.86236  0.99596  0.97912  1.0000
  C   C75       1.0  0.32035  0.18018  0.99049  1.0000
  O   O223      1.0  0.31955  0.18542  0.96281  1.0000
  O   O224      1.0  0.33444  0.19268  0.00799  1.0000
  O   O225      1.0  0.30688  0.16258  0.00070  1.0000
  C   C76       1.0  0.22330  0.06843  0.02611  1.0000
  O   O226      1.0  0.23921  0.06309  0.00562  1.0000
  O   O227      1.0  0.20553  0.08387  0.02106  1.0000
  O   O228      1.0  0.22517  0.05834  0.05165  1.0000
  C   C77       1.0  0.63639  0.53030  0.16013  1.0000
  O   O229      1.0  0.63303  0.55023  0.17455  1.0000
  O   O230      1.0  0.61962  0.52305  0.14153  1.0000
  O   O231      1.0  0.65642  0.51750  0.16452  1.0000
  C   C78       1.0  0.48527  0.25210  0.24886  1.0000
  O   O232      1.0  0.50161  0.26773  0.25801  1.0000
  O   O233      1.0  0.46504  0.24820  0.26389  1.0000
  O   O234      1.0  0.48928  0.24022  0.22483  1.0000
  C   C79       1.0  0.26066  0.87488  0.64972  1.0000
  O   O235      1.0  0.28171  0.88662  0.64946  1.0000
  O   O236      1.0  0.24033  0.88518  0.64041  1.0000
  O   O237      1.0  0.25999  0.85276  0.65907  1.0000
  C   C80       1.0  0.69896  0.23008  0.17346  1.0000
  O   O238      1.0  0.67704  0.23817  0.16604  1.0000
  O   O239      1.0  0.71703  0.24507  0.17904  1.0000
  O   O240      1.0  0.70276  0.20700  0.17553  1.0000
  C   C81       1.0  0.85307  0.84238  0.22686  1.0000
  O   O241      1.0  0.83451  0.82814  0.23311  1.0000
  O   O242      1.0  0.85991  0.84533  0.19983  1.0000
  O   O243      1.0  0.86480  0.85367  0.24765  1.0000
  C   C82       1.0  0.82670  0.02326  0.85126  1.0000
  O   O244      1.0  0.83902  0.04333  0.84844  1.0000
  O   O245      1.0  0.80437  0.02126  0.84028  1.0000
  O   O246      1.0  0.83681  0.00512  0.86481  1.0000
  C   C83       1.0  0.32598  0.33475  0.27710  1.0000
  O   O247      1.0  0.34741  0.32985  0.28914  1.0000
  O   O248      1.0  0.32182  0.35610  0.26646  1.0000
  O   O249      1.0  0.30878  0.31824  0.27550  1.0000
  C   C84       1.0  0.84292  0.60269  0.03918  1.0000
  O   O250      1.0  0.83595  0.58192  0.04952  1.0000
  O   O251      1.0  0.84499  0.62114  0.05652  1.0000
  O   O252      1.0  0.84836  0.60487  0.01162  1.0000
  C   C85       1.0  0.61888  0.90590  0.75711  1.0000
  O   O253      1.0  0.63232  0.92049  0.74137  1.0000
  O   O254      1.0  0.62191  0.90519  0.78529  1.0000
  O   O255      1.0  0.60253  0.89192  0.74467  1.0000
  C   C86       1.0  0.51749  0.42154  0.22737  1.0000
  O   O256      1.0  0.53159  0.43942  0.21922  1.0000
  O   O257      1.0  0.49844  0.42541  0.24438  1.0000
  O   O258      1.0  0.52259  0.39977  0.21872  1.0000
  C   C87       1.0  0.79429  0.55802  0.51843  1.0000
  O   O259      1.0  0.81097  0.56781  0.50150  1.0000
  O   O260      1.0  0.78397  0.53768  0.51111  1.0000
  O   O261      1.0  0.78811  0.56846  0.54282  1.0000
  C   C88       1.0  0.44847  0.96200  0.75245  1.0000
  O   O262      1.0  0.44580  0.94128  0.73956  1.0000
  O   O263      1.0  0.46073  0.96342  0.77693  1.0000
  O   O264      1.0  0.43869  0.98127  0.74101  1.0000
  C   C89       1.0  0.68173  0.29404  0.61909  1.0000
  O   O265      1.0  0.68067  0.28236  0.59449  1.0000
  O   O266      1.0  0.70312  0.30179  0.62883  1.0000
  O   O267      1.0  0.66138  0.29813  0.63384  1.0000
  C   C90       1.0  0.87441  0.06996  0.35135  1.0000
  O   O268      1.0  0.85977  0.08633  0.36234  1.0000
  O   O269      1.0  0.88391  0.05341  0.36813  1.0000
  O   O270      1.0  0.87956  0.07014  0.32359  1.0000
  C   C91       1.0  0.07242  0.23713  0.01215  1.0000
  O   O271      1.0  0.05847  0.25500  0.00366  1.0000
  O   O272      1.0  0.07744  0.23432  0.03975  1.0000
  O   O273      1.0  0.08153  0.22217  0.99304  1.0000
  C   C92       1.0  0.89557  0.19257  0.80804  1.0000
  O   O274      1.0  0.87499  0.20083  0.81940  1.0000
  O   O275      1.0  0.90317  0.20051  0.78283  1.0000
  O   O276      1.0  0.90863  0.17649  0.82198  1.0000
  C   C93       1.0  0.68551  0.94937  0.16784  1.0000
  O   O277      1.0  0.70417  0.93732  0.17873  1.0000
  O   O278      1.0  0.68827  0.97196  0.16103  1.0000
  O   O279      1.0  0.66401  0.93887  0.16399  1.0000
  C   C94       1.0  0.37454  0.34388  0.54054  1.0000
  O   O280      1.0  0.38236  0.34942  0.51449  1.0000
  O   O281      1.0  0.35185  0.33602  0.54427  1.0000
  O   O282      1.0  0.38933  0.34639  0.56288  1.0000
  C   C95       1.0  0.69723  0.77653  0.99905  1.0000
  O   O283      1.0  0.71840  0.78575  0.00747  1.0000
  O   O284      1.0  0.67627  0.78625  0.00736  1.0000
  O   O285      1.0  0.69701  0.75746  0.98254  1.0000
  C   C96       1.0  0.09284  0.41900  0.52195  1.0000
  O   O286      1.0  0.08628  0.41893  0.49459  1.0000
  O   O287      1.0  0.07927  0.40773  0.54117  1.0000
  O   O288      1.0  0.11308  0.43014  0.53004  1.0000
  C   C97       1.0  0.49063  0.57995  0.44824  1.0000
  O   O289      1.0  0.50372  0.58815  0.42645  1.0000
  O   O290      1.0  0.48818  0.59277  0.47185  1.0000
  O   O291      1.0  0.47979  0.55903  0.44630  1.0000
  C   C98       1.0  0.68563  0.19465  0.92484  1.0000
  O   O292      1.0  0.70402  0.20963  0.92884  1.0000
  O   O293      1.0  0.67281  0.18689  0.94708  1.0000
  O   O294      1.0  0.67995  0.18756  0.89859  1.0000
  C   C99       1.0  0.37748  0.58751  0.91554  1.0000
  O   O295      1.0  0.39650  0.59947  0.90537  1.0000
  O   O296      1.0  0.36821  0.59294  0.94096  1.0000
  O   O297      1.0  0.36759  0.57026  0.90016  1.0000
  C   C100      1.0  0.79219  0.56350  0.30528  1.0000
  O   O298      1.0  0.80290  0.56707  0.33042  1.0000
  O   O299      1.0  0.79139  0.58076  0.28609  1.0000
  O   O300      1.0  0.78250  0.54260  0.29923  1.0000
  C   C101      1.0  0.76844  0.07028  0.17140  1.0000
  O   O301      1.0  0.77783  0.09149  0.16633  1.0000
  O   O302      1.0  0.76868  0.06151  0.19774  1.0000
  O   O303      1.0  0.75859  0.05793  0.15017  1.0000
  C   C102      1.0  0.33263  0.41395  0.16823  1.0000
  O   O304      1.0  0.34680  0.42366  0.14837  1.0000
  O   O305      1.0  0.31561  0.39837  0.16078  1.0000
  O   O306      1.0  0.33557  0.41971  0.19555  1.0000
  C   C103      1.0  0.88806  0.16596  0.15440  1.0000
  O   O307      1.0  0.87076  0.14980  0.15050  1.0000
  O   O308      1.0  0.90315  0.16430  0.17659  1.0000
  O   O309      1.0  0.89040  0.18365  0.13597  1.0000
  C   C104      1.0  0.76827  0.02646  0.08779  1.0000
  O   O310      1.0  0.78332  0.01365  0.07177  1.0000
  O   O311      1.0  0.75196  0.01587  0.10451  1.0000
  O   O312      1.0  0.76967  0.04985  0.08730  1.0000
  C   C105      1.0  0.57077  0.14351  0.17172  1.0000
  O   O313      1.0  0.58674  0.16094  0.17521  1.0000
  O   O314      1.0  0.54910  0.14779  0.15993  1.0000
  O   O315      1.0  0.57657  0.12174  0.17978  1.0000
  C   C106      1.0  0.83371  0.38541  0.81135  1.0000
  O   O316      1.0  0.84263  0.37229  0.79024  1.0000
  O   O317      1.0  0.84182  0.40728  0.81516  1.0000
  O   O318      1.0  0.81651  0.37674  0.82847  1.0000
  C   C107      1.0  0.93163  0.36870  0.50322  1.0000
  O   O319      1.0  0.90872  0.36810  0.49371  1.0000
  O   O320      1.0  0.94940  0.35859  0.48819  1.0000
  O   O321      1.0  0.93681  0.37962  0.52762  1.0000
  C   C108      1.0  0.01189  0.19870  0.80458  1.0000
  O   O322      1.0  0.02860  0.20271  0.78452  1.0000
  O   O323      1.0  0.98929  0.19254  0.79720  1.0000
  O   O324      1.0  0.01773  0.20105  0.83201  1.0000
  C   C109      1.0  0.97359  0.47463  0.02923  1.0000
  O   O325      1.0  0.97333  0.49657  0.01925  1.0000
  O   O326      1.0  0.96371  0.46984  0.05454  1.0000
  O   O327      1.0  0.98371  0.45748  0.01391  1.0000
  C   C110      1.0  0.04947  0.65318  0.50664  1.0000
  O   O328      1.0  0.05501  0.63072  0.51149  1.0000
  O   O329      1.0  0.06022  0.66475  0.48537  1.0000
  O   O330      1.0  0.03333  0.66414  0.52324  1.0000
  C   C111      1.0  0.48622  0.03264  0.78080  1.0000
  O   O331      1.0  0.50607  0.04573  0.77657  1.0000
  O   O332      1.0  0.48404  0.01189  0.76785  1.0000
  O   O333      1.0  0.46841  0.04044  0.79767  1.0000
  C   C112      1.0  0.90801  0.64684  0.73110  1.0000
  O   O334      1.0  0.92922  0.63777  0.72262  1.0000
  O   O335      1.0  0.90012  0.66704  0.72003  1.0000
  O   O336      1.0  0.89479  0.63584  0.75087  1.0000
  C   C113      1.0  0.78530  0.89115  0.79673  1.0000
  O   O337      1.0  0.79407  0.91010  0.78354  1.0000
  O   O338      1.0  0.76416  0.89235  0.81069  1.0000
  O   O339      1.0  0.79768  0.87099  0.79596  1.0000
  C   C114      1.0  0.54517  0.05435  0.36084  1.0000
  O   O340      1.0  0.53092  0.07103  0.34983  1.0000
  O   O341      1.0  0.53943  0.03176  0.35732  1.0000
  O   O342      1.0  0.56509  0.06026  0.37548  1.0000
  C   C115      1.0  0.51612  0.04176  0.44506  1.0000
  O   O343      1.0  0.52611  0.04063  0.41919  1.0000
  O   O344      1.0  0.49233  0.04602  0.44785  1.0000
  O   O345      1.0  0.52998  0.03885  0.46814  1.0000
  C   C116      1.0  0.15026  0.14725  0.34137  1.0000
  O   O346      1.0  0.17037  0.15391  0.32759  1.0000
  O   O347      1.0  0.14911  0.14908  0.36966  1.0000
  O   O348      1.0  0.13121  0.13895  0.32684  1.0000
  C   C117      1.0  0.72737  0.24188  0.95242  1.0000
  O   O349      1.0  0.74332  0.22482  0.95813  1.0000
  O   O350      1.0  0.72943  0.25431  0.92847  1.0000
  O   O351      1.0  0.70922  0.24634  0.97054  1.0000
  C   C118      1.0  0.07485  0.87248  0.25983  1.0000
  O   O352      1.0  0.08882  0.87746  0.28229  1.0000
  O   O353      1.0  0.06188  0.88942  0.24735  1.0000
  O   O354      1.0  0.07383  0.85056  0.24986  1.0000
  C   C119      1.0  0.52047  0.98590  0.44567  1.0000
  O   O355      1.0  0.53672  0.98141  0.42525  1.0000
  O   O356      1.0  0.49857  0.99441  0.43890  1.0000
  O   O357      1.0  0.52621  0.98209  0.47289  1.0000
  C   C120      1.0  0.17824  0.50185  0.71249  1.0000
  O   O358      1.0  0.19389  0.48467  0.71874  1.0000
  O   O359      1.0  0.17575  0.50908  0.68563  1.0000
  O   O360      1.0  0.16510  0.51182  0.73312  1.0000
  C   C121      1.0  0.36750  0.22790  0.31383  1.0000
  O   O361      1.0  0.38531  0.23229  0.29522  1.0000
  O   O362      1.0  0.34660  0.23981  0.31234  1.0000
  O   O363      1.0  0.37060  0.21160  0.33392  1.0000
  C   C122      1.0  0.00141  0.76405  0.56894  1.0000
  O   O364      1.0  0.98782  0.76009  0.54587  1.0000
  O   O365      1.0  0.99111  0.76416  0.59468  1.0000
  O   O366      1.0  0.02524  0.76814  0.56625  1.0000
  C   C123      1.0  0.23118  0.68551  0.16603  1.0000
  O   O367      1.0  0.24904  0.67994  0.18409  1.0000
  O   O368      1.0  0.20873  0.67717  0.17020  1.0000
  O   O369      1.0  0.23572  0.69957  0.14393  1.0000
  C   C124      1.0  0.60930  0.18860  0.86400  1.0000
  O   O370      1.0  0.61814  0.21031  0.86122  1.0000
  O   O371      1.0  0.58956  0.18214  0.84937  1.0000
  O   O372      1.0  0.62010  0.17340  0.88156  1.0000
  C   C125      1.0  0.96153  0.08552  0.61738  1.0000
  O   O373      1.0  0.95244  0.10714  0.62005  1.0000
  O   O374      1.0  0.95837  0.07362  0.59318  1.0000
  O   O375      1.0  0.97361  0.07572  0.63899  1.0000
  C   C126      1.0  0.89998  0.45323  0.11870  1.0000
  O   O376      1.0  0.88956  0.46627  0.13892  1.0000
  O   O377      1.0  0.92381  0.44867  0.11982  1.0000
  O   O378      1.0  0.88651  0.44454  0.09751  1.0000
  C   C127      1.0  0.04115  0.94977  0.04291  1.0000
  O   O379      1.0  0.04382  0.97231  0.05001  1.0000
  O   O380      1.0  0.02657  0.94381  0.02135  1.0000
  O   O381      1.0  0.05304  0.93318  0.05739  1.0000
  C   C128      1.0  0.30108  0.58777  0.29344  1.0000
  O   O382      1.0  0.30232  0.59355  0.26595  1.0000
  O   O383      1.0  0.30855  0.56663  0.30205  1.0000
  O   O384      1.0  0.29221  0.60308  0.31230  1.0000
  C   C129      1.0  0.61148  0.15923  0.24627  1.0000
  O   O385      1.0  0.61609  0.14242  0.26530  1.0000
  O   O386      1.0  0.59858  0.17809  0.25383  1.0000
  O   O387      1.0  0.61975  0.15718  0.21967  1.0000
  C   C130      1.0  0.53111  0.20263  0.90333  1.0000
  O   O388      1.0  0.53551  0.18500  0.92133  1.0000
  O   O389      1.0  0.53312  0.22482  0.91218  1.0000
  O   O390      1.0  0.52475  0.19808  0.87647  1.0000
  C   C131      1.0  0.11268  0.42573  0.41766  1.0000
  O   O391      1.0  0.12310  0.41089  0.43597  1.0000
  O   O392      1.0  0.11164  0.42036  0.39003  1.0000
  O   O393      1.0  0.10343  0.44600  0.42695  1.0000
  C   C132      1.0  0.59239  0.34585  0.46154  1.0000
  O   O394      1.0  0.59594  0.34659  0.43345  1.0000
  O   O395      1.0  0.57307  0.33463  0.47215  1.0000
  O   O396      1.0  0.60806  0.35651  0.47901  1.0000
  C   C133      1.0  0.89867  0.49638  0.04483  1.0000
  O   O397      1.0  0.92042  0.50387  0.03593  1.0000
  O   O398      1.0  0.89132  0.47462  0.03871  1.0000
  O   O399      1.0  0.88417  0.51073  0.05957  1.0000
  C   C134      1.0  0.76944  0.01010  0.00177  1.0000
  O   O400      1.0  0.79027  0.02144  0.00691  1.0000
  O   O401      1.0  0.74823  0.01975  0.00927  1.0000
  O   O402      1.0  0.76982  0.98919  0.98896  1.0000
  C   C135      1.0  0.18694  0.96452  0.61443  1.0000
  O   O403      1.0  0.17195  0.95029  0.62871  1.0000
  O   O404      1.0  0.18731  0.96407  0.58601  1.0000
  O   O405      1.0  0.20221  0.97855  0.62858  1.0000
  C   C136      1.0  0.00107  0.57867  0.06460  1.0000
  O   O406      1.0  0.99090  0.55849  0.07279  1.0000
  O   O407      1.0  0.01140  0.58037  0.03896  1.0000
  O   O408      1.0  0.00113  0.59709  0.08216  1.0000
  C   C137      1.0  0.09425  0.44383  0.73024  1.0000
  O   O409      1.0  0.08640  0.46451  0.72050  1.0000
  O   O410      1.0  0.08568  0.42394  0.71904  1.0000
  O   O411      1.0  0.11070  0.44305  0.75114  1.0000
  C   C138      1.0  0.22498  0.02304  0.59093  1.0000
  O   O412      1.0  0.23025  0.04367  0.57894  1.0000
  O   O413      1.0  0.23973  0.01407  0.61073  1.0000
  O   O414      1.0  0.20488  0.01146  0.58328  1.0000
  C   C139      1.0  0.10766  0.35972  0.93474  1.0000
  O   O415      1.0  0.12928  0.37008  0.93808  1.0000
  O   O416      1.0  0.09186  0.35910  0.95632  1.0000
  O   O417      1.0  0.10182  0.35001  0.90980  1.0000
  C   C140      1.0  0.58992  0.03070  0.84873  1.0000
  O   O418      1.0  0.58133  0.04993  0.83596  1.0000
  O   O419      1.0  0.60894  0.01931  0.83767  1.0000
  O   O420      1.0  0.57954  0.02292  0.87263  1.0000
  C   C141      1.0  0.82477  0.33398  0.67015  1.0000
  O   O421      1.0  0.84883  0.33719  0.66861  1.0000
  O   O422      1.0  0.80990  0.35248  0.67171  1.0000
  O   O423      1.0  0.81558  0.31229  0.66996  1.0000
  C   C142      1.0  0.89003  0.05336  0.58018  1.0000
  O   O424      1.0  0.88965  0.03013  0.58384  1.0000
  O   O425      1.0  0.90145  0.06260  0.55773  1.0000
  O   O426      1.0  0.87920  0.06737  0.59912  1.0000
  C   C143      1.0  0.90997  0.81073  0.76140  1.0000
  O   O427      1.0  0.92685  0.81478  0.78125  1.0000
  O   O428      1.0  0.89944  0.82868  0.74790  1.0000
  O   O429      1.0  0.90379  0.78872  0.75484  1.0000
  C   C144      1.0  0.24611  0.42022  0.65792  1.0000
  O   O430      1.0  0.26159  0.43762  0.65205  1.0000
  O   O431      1.0  0.22885  0.42322  0.67760  1.0000
  O   O432      1.0  0.24778  0.39986  0.64399  1.0000
  C   C145      1.0  0.74131  0.25276  0.12333  1.0000
  O   O433      1.0  0.76314  0.26152  0.13001  1.0000
  O   O434      1.0  0.72201  0.26695  0.12165  1.0000
  O   O435      1.0  0.73881  0.22984  0.11824  1.0000
  C   C146      1.0  0.36311  0.76185  0.01592  1.0000
  O   O436      1.0  0.35511  0.77887  0.99877  1.0000
  O   O437      1.0  0.36074  0.73940  0.00823  1.0000
  O   O438      1.0  0.37371  0.76727  0.04063  1.0000
  C   C147      1.0  0.36287  0.65387  0.38568  1.0000
  O   O439      1.0  0.36174  0.63311  0.37256  1.0000
  O   O440      1.0  0.35877  0.65529  0.41363  1.0000
  O   O441      1.0  0.36801  0.67323  0.37083  1.0000
  C   C148      1.0  0.62579  0.03287  0.46498  1.0000
  O   O442      1.0  0.63936  0.03567  0.48831  1.0000
  O   O443      1.0  0.61674  0.05158  0.45156  1.0000
  O   O444      1.0  0.62141  0.01135  0.45497  1.0000
  C   C149      1.0  0.83058  0.27580  0.21106  1.0000
  O   O445      1.0  0.83069  0.29247  0.23102  1.0000
  O   O446      1.0  0.81031  0.26352  0.20607  1.0000
  O   O447      1.0  0.85078  0.27130  0.19621  1.0000
  C   C150      1.0  0.06797  0.18038  0.51609  1.0000
  O   O448      1.0  0.06918  0.19550  0.49443  1.0000
  O   O449      1.0  0.04973  0.18181  0.53480  1.0000
  O   O450      1.0  0.08489  0.16371  0.51890  1.0000
  C   C151      1.0  0.31670  0.90851  0.08399  1.0000
  O   O451      1.0  0.32353  0.88606  0.08237  1.0000
  O   O452      1.0  0.33228  0.92468  0.09356  1.0000
  O   O453      1.0  0.29420  0.91476  0.07629  1.0000
  C   C152      1.0  0.19231  0.46057  0.34403  1.0000
  O   O454      1.0  0.21278  0.47251  0.34905  1.0000
  O   O455      1.0  0.17547  0.46937  0.32652  1.0000
  O   O456      1.0  0.18872  0.43976  0.35642  1.0000
  C   C153      1.0  0.79989  0.70021  0.08115  1.0000
  O   O457      1.0  0.80695  0.71829  0.06506  1.0000
  O   O458      1.0  0.77648  0.69784  0.08829  1.0000
  O   O459      1.0  0.81621  0.68440  0.08989  1.0000
  C   C154      1.0  0.34102  0.55142  0.22445  1.0000
  O   O460      1.0  0.34889  0.56464  0.20286  1.0000
  O   O461      1.0  0.31719  0.54963  0.22968  1.0000
  O   O462      1.0  0.35700  0.54016  0.24095  1.0000
  C   C155      1.0  0.04510  0.04600  0.26289  1.0000
  O   O463      1.0  0.05313  0.03838  0.23772  1.0000
  O   O464      1.0  0.05939  0.05935  0.27921  1.0000
  O   O465      1.0  0.02268  0.04046  0.27163  1.0000
  C   C156      1.0  0.08981  0.69527  0.67005  1.0000
  O   O466      1.0  0.09709  0.68304  0.69275  1.0000
  O   O467      1.0  0.08753  0.68465  0.64487  1.0000
  O   O468      1.0  0.08491  0.71813  0.67251  1.0000
  C   C157      1.0  0.70121  0.97812  0.89022  1.0000
  O   O469      1.0  0.68172  0.99128  0.88439  1.0000
  O   O470      1.0  0.71572  0.97087  0.86918  1.0000
  O   O471      1.0  0.70620  0.97221  0.91709  1.0000
  C   C158      1.0  0.18257  0.68619  0.73392  1.0000
  O   O472      1.0  0.18689  0.69614  0.70870  1.0000
  O   O473      1.0  0.17100  0.69824  0.75420  1.0000
  O   O474      1.0  0.18962  0.66413  0.73877  1.0000
  C   C159      1.0  0.96152  0.54518  0.22527  1.0000
  O   O475      1.0  0.96983  0.56102  0.20671  1.0000
  O   O476      1.0  0.93795  0.54491  0.23227  1.0000
  O   O477      1.0  0.97682  0.52977  0.23703  1.0000
  C   C160      1.0  0.50446  0.14692  0.97727  1.0000
  O   O478      1.0  0.48788  0.13517  0.96215  1.0000
  O   O479      1.0  0.50897  0.16945  0.97148  1.0000
  O   O480      1.0  0.51669  0.13610  0.99804  1.0000
  C   C161      1.0  0.36874  0.79438  0.45190  1.0000
  O   O481      1.0  0.39212  0.79155  0.45893  1.0000
  O   O482      1.0  0.35750  0.81465  0.45748  1.0000
  O   O483      1.0  0.35666  0.77702  0.43905  1.0000
  C   C162      1.0  0.87304  0.72072  0.07902  1.0000
  O   O484      1.0  0.87711  0.73797  0.06040  1.0000
  O   O485      1.0  0.85464  0.72239  0.09748  1.0000
  O   O486      1.0  0.88737  0.70178  0.07918  1.0000
  C   C163      1.0  0.75844  0.14751  0.47350  1.0000
  O   O487      1.0  0.76543  0.12515  0.47592  1.0000
  O   O488      1.0  0.75109  0.15580  0.44835  1.0000
  O   O489      1.0  0.75858  0.16151  0.49628  1.0000
  C   C164      1.0  0.14687  0.33508  0.59294  1.0000
  O   O490      1.0  0.15152  0.32400  0.61737  1.0000
  O   O491      1.0  0.14020  0.35761  0.59317  1.0000
  O   O492      1.0  0.14912  0.32369  0.56825  1.0000
  C   C165      1.0  0.33447  0.18626  0.28519  1.0000
  O   O493      1.0  0.31363  0.18076  0.27214  1.0000
  O   O494      1.0  0.33804  0.17995  0.31223  1.0000
  O   O495      1.0  0.35182  0.19787  0.27111  1.0000
  C   C166      1.0  0.92089  0.46105  0.96712  1.0000
  O   O496      1.0  0.94219  0.46762  0.97827  1.0000
  O   O497      1.0  0.90931  0.47515  0.94889  1.0000
  O   O498      1.0  0.91106  0.44047  0.97438  1.0000
  C   C167      1.0  0.35999  0.28373  0.60100  1.0000
  O   O499      1.0  0.35558  0.26966  0.62313  1.0000
  O   O500      1.0  0.35733  0.30691  0.60371  1.0000
  O   O501      1.0  0.36702  0.27461  0.57616  1.0000
  C   C168      1.0  0.50353  0.14755  0.79416  1.0000
  O   O502      1.0  0.52226  0.15061  0.81190  1.0000
  O   O503      1.0  0.50604  0.13392  0.77124  1.0000
  O   O504      1.0  0.48225  0.15803  0.79943  1.0000
  C   C169      1.0  0.92394  0.75315  0.21222  1.0000
  O   O505      1.0  0.94600  0.74533  0.21952  1.0000
  O   O506      1.0  0.91003  0.76402  0.23143  1.0000
  O   O507      1.0  0.91587  0.75026  0.18565  1.0000
  C   C170      1.0  0.34046  0.55366  0.45394  1.0000
  O   O508      1.0  0.33648  0.57394  0.44047  1.0000
  O   O509      1.0  0.32400  0.53645  0.45245  1.0000
  O   O510      1.0  0.36077  0.55070  0.46915  1.0000
  C   C171      1.0  0.53770  0.29610  0.53671  1.0000
  O   O511      1.0  0.51911  0.28339  0.54662  1.0000
  O   O512      1.0  0.56016  0.29250  0.54669  1.0000
  O   O513      1.0  0.53383  0.31240  0.51680  1.0000
  C   C172      1.0  0.12569  0.27475  0.97793  1.0000
  O   O514      1.0  0.14913  0.27277  0.98511  1.0000
  O   O515      1.0  0.11925  0.28817  0.95588  1.0000
  O   O516      1.0  0.10871  0.26314  0.99261  1.0000
  C   C173      1.0  0.17352  0.74571  0.63725  1.0000
  O   O517      1.0  0.18940  0.73107  0.62508  1.0000
  O   O518      1.0  0.15922  0.75919  0.62111  1.0000
  O   O519      1.0  0.17198  0.74689  0.66557  1.0000
  C   C174      1.0  0.25756  0.52753  0.13263  1.0000
  O   O520      1.0  0.27199  0.54205  0.14725  1.0000
  O   O521      1.0  0.25563  0.52972  0.10443  1.0000
  O   O522      1.0  0.24490  0.51098  0.14624  1.0000
  C   C175      1.0  0.12629  0.77571  0.83418  1.0000
  O   O523      1.0  0.11737  0.78900  0.85514  1.0000
  O   O524      1.0  0.13359  0.75381  0.83958  1.0000
  O   O525      1.0  0.12770  0.78426  0.80778  1.0000
  C   C176      1.0  0.08148  0.59037  0.34288  1.0000
  O   O526      1.0  0.10280  0.58548  0.35518  1.0000
  O   O527      1.0  0.08061  0.60493  0.32064  1.0000
  O   O528      1.0  0.06103  0.58068  0.35279  1.0000
  C   C177      1.0  0.14162  0.73087  0.24637  1.0000
  O   O529      1.0  0.12868  0.72180  0.26776  1.0000
  O   O530      1.0  0.13179  0.73262  0.22047  1.0000
  O   O531      1.0  0.16448  0.73799  0.25082  1.0000
  C   C178      1.0  0.22476  0.39145  0.89368  1.0000
  O   O532      1.0  0.23928  0.40820  0.88332  1.0000
  O   O533      1.0  0.20316  0.39711  0.90478  1.0000
  O   O534      1.0  0.23194  0.36907  0.89318  1.0000
  C   C179      1.0  0.29775  0.63571  0.40894  1.0000
  O   O535      1.0  0.27391  0.63171  0.40606  1.0000
  O   O536      1.0  0.31365  0.61826  0.40512  1.0000
  O   O537      1.0  0.30570  0.65721  0.41539  1.0000
  C   C180      1.0  0.53724  0.98089  0.59530  1.0000
  O   O538      1.0  0.54950  0.96331  0.60745  1.0000
  O   O539      1.0  0.54169  0.98667  0.56826  1.0000
  O   O540      1.0  0.52061  0.99276  0.61021  1.0000
  C   C181      1.0  0.77748  0.11811  0.81737  1.0000
  O   O541      1.0  0.79784  0.10548  0.81477  1.0000
  O   O542      1.0  0.77162  0.13386  0.79747  1.0000
  O   O543      1.0  0.76288  0.11487  0.83974  1.0000
  C   C182      1.0  0.13671  0.22043  0.34868  1.0000
  O   O544      1.0  0.16015  0.22424  0.34269  1.0000
  O   O545      1.0  0.11986  0.22294  0.32842  1.0000
  O   O546      1.0  0.13012  0.21409  0.37492  1.0000
  C   C183      1.0  0.66243  0.36063  0.37348  1.0000
  O   O547      1.0  0.66132  0.38274  0.38280  1.0000
  O   O548      1.0  0.67331  0.35582  0.34875  1.0000
  O   O549      1.0  0.65246  0.34337  0.38875  1.0000
  C   C184      1.0  0.99026  0.83270  0.02285  1.0000
  O   O550      1.0  0.01245  0.84189  0.02621  1.0000
  O   O551      1.0  0.97059  0.84636  0.02499  1.0000
  O   O552      1.0  0.98776  0.80986  0.01717  1.0000
  C   C185      1.0  0.22908  0.59301  0.89234  1.0000
  O   O553      1.0  0.23371  0.57144  0.90204  1.0000
  O   O554      1.0  0.22110  0.60959  0.91013  1.0000
  O   O555      1.0  0.23241  0.59800  0.86486  1.0000
  C   C186      1.0  0.43266  0.37452  0.77493  1.0000
  O   O556      1.0  0.44479  0.38314  0.75263  1.0000
  O   O557      1.0  0.41079  0.36474  0.77123  1.0000
  O   O558      1.0  0.44247  0.37555  0.80089  1.0000
  C   C187      1.0  0.52310  0.83133  0.20460  1.0000
  O   O559      1.0  0.53833  0.83780  0.18389  1.0000
  O   O560      1.0  0.51420  0.84737  0.22251  1.0000
  O   O561      1.0  0.51685  0.80881  0.20748  1.0000
  C   C188      1.0  0.02080  0.81619  0.52322  1.0000
  O   O562      1.0  0.00610  0.81509  0.54581  1.0000
  O   O563      1.0  0.01147  0.81954  0.49730  1.0000
  O   O564      1.0  0.04482  0.81370  0.52651  1.0000
  C   C189      1.0  0.46717  0.49019  0.22221  1.0000
  O   O565      1.0  0.44836  0.49462  0.23940  1.0000
  O   O566      1.0  0.46757  0.47051  0.20680  1.0000
  O   O567      1.0  0.48567  0.50535  0.22061  1.0000
  C   C190      1.0  0.00632  0.41539  0.94715  1.0000
  O   O568      1.0  0.01626  0.43544  0.93812  1.0000
  O   O569      1.0  0.98936  0.41574  0.96751  1.0000
  O   O570      1.0  0.01342  0.39498  0.93592  1.0000
  C   C191      1.0  0.13857  0.10933  0.44836  1.0000
  O   O571      1.0  0.15537  0.12429  0.43872  1.0000
  O   O572      1.0  0.11572  0.11057  0.43872  1.0000
  O   O573      1.0  0.14454  0.09328  0.46784  1.0000
  C   C192      1.0  0.32245  0.19940  0.61149  1.0000
  O   O574      1.0  0.34254  0.18677  0.60676  1.0000
  O   O575      1.0  0.31109  0.20989  0.58982  1.0000
  O   O576      1.0  0.31383  0.20168  0.63791  1.0000
  C   C193      1.0  0.75541  0.68270  0.62759  1.0000
  O   O577      1.0  0.73647  0.68414  0.64533  1.0000
  O   O578      1.0  0.75399  0.66924  0.60439  1.0000
  O   O579      1.0  0.77568  0.69488  0.63291  1.0000
  C   C194      1.0  0.24908  0.10647  0.13540  1.0000
  O   O580      1.0  0.24754  0.11300  0.16263  1.0000
  O   O581      1.0  0.23001  0.10932  0.11811  1.0000
  O   O582      1.0  0.26967  0.09705  0.12548  1.0000
  C   C195      1.0  0.51904  0.80521  0.13158  1.0000
  O   O583      1.0  0.53803  0.79099  0.13585  1.0000
  O   O584      1.0  0.52073  0.82279  0.11289  1.0000
  O   O585      1.0  0.49845  0.80198  0.14617  1.0000
  C   C196      1.0  0.13174  0.65088  0.69681  1.0000
  O   O586      1.0  0.11319  0.63576  0.69816  1.0000
  O   O587      1.0  0.14443  0.65311  0.67273  1.0000
  O   O588      1.0  0.13759  0.66376  0.71954  1.0000
  C   C197      1.0  0.32436  0.38976  0.56795  1.0000
  O   O589      1.0  0.31456  0.38821  0.54201  1.0000
  O   O590      1.0  0.32863  0.37032  0.58301  1.0000
  O   O591      1.0  0.32988  0.41074  0.57883  1.0000
  C   C198      1.0  0.98941  0.35453  0.08852  1.0000
  O   O592      1.0  0.00784  0.35902  0.07079  1.0000
  O   O593      1.0  0.96749  0.34905  0.07816  1.0000
  O   O594      1.0  0.99295  0.35539  0.11661  1.0000
  C   C199      1.0  0.58063  0.06524  0.27647  1.0000
  O   O595      1.0  0.59069  0.04462  0.28308  1.0000
  O   O596      1.0  0.57031  0.07830  0.29674  1.0000
  O   O597      1.0  0.58070  0.07271  0.24954  1.0000
  C   C200      1.0  0.82366  0.51991  0.95787  1.0000
  O   O598      1.0  0.84458  0.53182  0.95908  1.0000
  O   O599      1.0  0.80264  0.53073  0.96358  1.0000
  O   O600      1.0  0.82375  0.49717  0.95099  1.0000
  C   C201      1.0  0.71818  0.61832  0.25901  1.0000
  O   O601      1.0  0.74134  0.61860  0.26767  1.0000
  O   O602      1.0  0.71262  0.62456  0.23241  1.0000
  O   O603      1.0  0.70060  0.61159  0.27687  1.0000
  C   C202      1.0  0.17273  0.01239  0.89046  1.0000
  O   O604      1.0  0.15910  0.00082  0.87157  1.0000
  O   O605      1.0  0.17826  0.03492  0.88609  1.0000
  O   O606      1.0  0.18067  0.00148  0.91383  1.0000
  C   C203      1.0  0.53737  0.56571  0.96222  1.0000
  O   O607      1.0  0.52960  0.58649  0.97170  1.0000
  O   O608      1.0  0.52424  0.55388  0.94309  1.0000
  O   O609      1.0  0.55817  0.55668  0.97204  1.0000
  C   C204      1.0  0.43903  0.99497  0.85258  1.0000
  O   O610      1.0  0.43108  0.97397  0.84408  1.0000
  O   O611      1.0  0.43458  0.01396  0.83677  1.0000
  O   O612      1.0  0.45140  0.99699  0.87693  1.0000
  C   C205      1.0  0.43403  0.77087  0.11107  1.0000
  O   O613      1.0  0.45707  0.76842  0.11965  1.0000
  O   O614      1.0  0.42050  0.78853  0.12103  1.0000
  O   O615      1.0  0.42445  0.75555  0.09271  1.0000
  C   C206      1.0  0.43566  0.63187  0.72433  1.0000
  O   O616      1.0  0.43274  0.61807  0.70163  1.0000
  O   O617      1.0  0.43762  0.65507  0.72102  1.0000
  O   O618      1.0  0.43671  0.62248  0.75033  1.0000
  C   C207      1.0  0.48601  0.84109  0.41980  1.0000
  O   O619      1.0  0.50517  0.83759  0.43678  1.0000
  O   O620      1.0  0.46401  0.83343  0.42758  1.0000
  O   O621      1.0  0.48885  0.85228  0.39506  1.0000
  C   C208      1.0  0.47126  0.14716  0.03206  1.0000
  O   O622      1.0  0.48945  0.16230  0.03640  1.0000
  O   O623      1.0  0.45648  0.14987  0.00973  1.0000
  O   O624      1.0  0.46771  0.12945  0.05019  1.0000
  C   C209      1.0  0.29695  0.27425  0.57115  1.0000
  O   O625      1.0  0.28515  0.26551  0.54869  1.0000
  O   O626      1.0  0.29367  0.26481  0.59687  1.0000
  O   O627      1.0  0.31188  0.29256  0.56794  1.0000
  C   C210      1.0  0.07085  0.67755  0.55718  1.0000
  O   O628      1.0  0.08654  0.66190  0.54662  1.0000
  O   O629      1.0  0.06933  0.69895  0.54573  1.0000
  O   O630      1.0  0.05650  0.67173  0.57900  1.0000
  C   C211      1.0  0.56051  0.01401  0.23772  1.0000
  O   O631      1.0  0.54618  0.02109  0.21642  1.0000
  O   O632      1.0  0.55069  0.00733  0.26242  1.0000
  O   O633      1.0  0.58463  0.01338  0.23422  1.0000
  C   C212      1.0  0.11228  0.04654  0.62858  1.0000
  O   O634      1.0  0.09061  0.05716  0.62937  1.0000
  O   O635      1.0  0.12921  0.05177  0.64797  1.0000
  O   O636      1.0  0.11710  0.03085  0.60825  1.0000
  C   C213      1.0  0.04700  0.07403  0.17078  1.0000
  O   O637      1.0  0.03320  0.05593  0.16271  1.0000
  O   O638      1.0  0.06891  0.07022  0.18221  1.0000
  O   O639      1.0  0.03881  0.09594  0.16764  1.0000
  C   C214      1.0  0.43030  0.76139  0.66022  1.0000
  O   O640      1.0  0.43910  0.78244  0.66730  1.0000
  O   O641      1.0  0.42076  0.74749  0.68018  1.0000
  O   O642      1.0  0.43086  0.75433  0.63314  1.0000
  C   C215      1.0  0.09816  0.76023  0.46806  1.0000
  O   O643      1.0  0.11787  0.74670  0.47086  1.0000
  O   O644      1.0  0.09827  0.78211  0.47823  1.0000
  O   O645      1.0  0.07841  0.75195  0.45487  1.0000
  C   C216      1.0  0.11973  0.03416  0.25452  1.0000
  O   O646      1.0  0.11046  0.01552  0.26789  1.0000
  O   O647      1.0  0.13765  0.03139  0.23561  1.0000
  O   O648      1.0  0.11114  0.05559  0.26013  1.0000
  C   C217      1.0  0.15182  0.22768  0.74109  1.0000
  O   O649      1.0  0.17540  0.23215  0.74546  1.0000
  O   O650      1.0  0.14241  0.22970  0.71501  1.0000
  O   O651      1.0  0.13761  0.22141  0.76285  1.0000
  C   C218      1.0  0.77793  0.76702  0.28046  1.0000
  O   O652      1.0  0.76590  0.74948  0.29303  1.0000
  O   O653      1.0  0.78802  0.78392  0.29621  1.0000
  O   O654      1.0  0.77966  0.76776  0.25214  1.0000
  C   C219      1.0  0.56211  0.48285  0.74852  1.0000
  O   O655      1.0  0.55437  0.50210  0.76195  1.0000
  O   O656      1.0  0.54901  0.47381  0.72723  1.0000
  O   O657      1.0  0.58306  0.47277  0.75617  1.0000
  C   C220      1.0  0.81219  0.19717  0.57387  1.0000
  O   O658      1.0  0.79490  0.20125  0.59322  1.0000
  O   O659      1.0  0.80782  0.18259  0.55222  1.0000
  O   O660      1.0  0.83377  0.20782  0.57603  1.0000
  C   C221      1.0  0.47130  0.47924  0.91618  1.0000
  O   O661      1.0  0.48584  0.49679  0.92431  1.0000
  O   O662      1.0  0.45161  0.48372  0.90040  1.0000
  O   O663      1.0  0.47648  0.45722  0.92375  1.0000
  C   C222      1.0  0.71967  0.78194  0.59350  1.0000
  O   O664      1.0  0.72498  0.77069  0.61764  1.0000
  O   O665      1.0  0.69938  0.77662  0.57923  1.0000
  O   O666      1.0  0.73478  0.79833  0.58348  1.0000
  C   C223      1.0  0.12362  0.98821  0.34083  1.0000
  O   O667      1.0  0.10601  0.97439  0.33068  1.0000
  O   O668      1.0  0.14341  0.97874  0.35268  1.0000
  O   O669      1.0  0.12155  0.01150  0.33885  1.0000
  C   C224      1.0  0.66329  0.84394  0.05119  1.0000
  O   O670      1.0  0.68002  0.84400  0.07182  1.0000
  O   O671      1.0  0.65557  0.86418  0.04007  1.0000
  O   O672      1.0  0.65410  0.82364  0.04188  1.0000
  C   C225      1.0  0.51233  0.67951  0.80230  1.0000
  O   O673      1.0  0.53308  0.67295  0.78981  1.0000
  O   O674      1.0  0.49643  0.69292  0.78824  1.0000
  O   O675      1.0  0.50747  0.67265  0.82887  1.0000
  C   C226      1.0  0.25015  0.42741  0.51874  1.0000
  O   O676      1.0  0.25510  0.44512  0.53643  1.0000
  O   O677      1.0  0.26394  0.40811  0.51906  1.0000
  O   O678      1.0  0.23128  0.42892  0.50091  1.0000
  C   C227      1.0  0.16668  0.10544  0.10194  1.0000
  O   O679      1.0  0.16565  0.09830  0.07491  1.0000
  O   O680      1.0  0.17891  0.12492  0.10867  1.0000
  O   O681      1.0  0.15527  0.09324  0.12220  1.0000
  C   C228      1.0  0.55878  0.95833  0.10279  1.0000
  O   O682      1.0  0.57294  0.97638  0.09538  1.0000
  O   O683      1.0  0.53461  0.96083  0.10319  1.0000
  O   O684      1.0  0.56880  0.93772  0.10957  1.0000
  C   C229      1.0  0.74408  0.32006  0.15537  1.0000
  O   O685      1.0  0.73546  0.34177  0.15180  1.0000
  O   O686      1.0  0.76343  0.31289  0.14051  1.0000
  O   O687      1.0  0.73323  0.30545  0.17361  1.0000
  C   C230      1.0  0.63746  0.71991  0.85403  1.0000
  O   O688      1.0  0.63745  0.74075  0.86702  1.0000
  O   O689      1.0  0.64185  0.71856  0.82613  1.0000
  O   O690      1.0  0.63310  0.70041  0.86893  1.0000
  C   C231      1.0  0.83331  0.33279  0.53051  1.0000
  O   O691      1.0  0.84488  0.35322  0.53377  1.0000
  O   O692      1.0  0.81616  0.32636  0.54908  1.0000
  O   O693      1.0  0.83899  0.31872  0.50878  1.0000
  C   C232      1.0  0.46140  0.94821  0.10386  1.0000
  O   O694      1.0  0.46636  0.92863  0.08938  1.0000
  O   O695      1.0  0.47749  0.95660  0.12259  1.0000
  O   O696      1.0  0.44037  0.95945  0.09958  1.0000
  C   C233      1.0  0.17652  0.43552  0.47675  1.0000
  O   O697      1.0  0.18154  0.41261  0.47796  1.0000
  O   O698      1.0  0.18595  0.44868  0.45598  1.0000
  O   O699      1.0  0.16188  0.44522  0.49615  1.0000
  C   C234      1.0  0.08049  0.56199  0.83972  1.0000
  O   O700      1.0  0.06885  0.55240  0.81765  1.0000
  O   O701      1.0  0.10413  0.55762  0.84378  1.0000
  O   O702      1.0  0.06844  0.57578  0.85787  1.0000
  C   C235      1.0  0.82724  0.86054  0.09471  1.0000
  O   O703      1.0  0.82206  0.84106  0.08013  1.0000
  O   O704      1.0  0.82565  0.88146  0.08207  1.0000
  O   O705      1.0  0.83416  0.85908  0.12189  1.0000
  C   C236      1.0  0.57023  0.79823  0.64835  1.0000
  O   O706      1.0  0.55768  0.79907  0.62404  1.0000
  O   O707      1.0  0.56179  0.80918  0.67145  1.0000
  O   O708      1.0  0.59122  0.78644  0.64956  1.0000
  C   C237      1.0  0.20805  0.78138  0.34148  1.0000
  O   O709      1.0  0.20779  0.79017  0.36781  1.0000
  O   O710      1.0  0.19132  0.78821  0.32259  1.0000
  O   O711      1.0  0.22503  0.76578  0.33403  1.0000
  C   C238      1.0  0.72172  0.06760  0.42935  1.0000
  O   O712      1.0  0.73738  0.05074  0.43673  1.0000
  O   O713      1.0  0.71833  0.08605  0.44642  1.0000
  O   O714      1.0  0.70944  0.06602  0.40490  1.0000
  C   C239      1.0  0.59217  0.69154  0.38146  1.0000
  O   O715      1.0  0.60086  0.69863  0.35636  1.0000
  O   O716      1.0  0.59966  0.67125  0.39266  1.0000
  O   O717      1.0  0.57580  0.70463  0.39524  1.0000
  C   C240      1.0  0.71310  0.75360  0.89569  1.0000
  O   O718      1.0  0.70055  0.77111  0.88377  1.0000
  O   O719      1.0  0.71148  0.74980  0.92366  1.0000
  O   O720      1.0  0.72710  0.73978  0.87960  1.0000
  C   C241      1.0  0.99895  0.81926  0.85092  1.0000
  O   O721      1.0  0.98359  0.82258  0.87257  1.0000
  O   O722      1.0  0.01023  0.83757  0.83908  1.0000
  O   O723      1.0  0.00315  0.79760  0.84123  1.0000
  C   C242      1.0  0.58986  0.86150  0.87299  1.0000
  O   O724      1.0  0.58324  0.84346  0.88938  1.0000
  O   O725      1.0  0.59061  0.85902  0.84475  1.0000
  O   O726      1.0  0.59586  0.88200  0.88484  1.0000
  C   C243      1.0  0.52263  0.35726  0.27734  1.0000
  O   O727      1.0  0.50253  0.35963  0.26160  1.0000
  O   O728      1.0  0.54289  0.34850  0.26575  1.0000
  O   O729      1.0  0.52241  0.36345  0.30474  1.0000
  C   C244      1.0  0.06334  0.28420  0.26143  1.0000
  O   O730      1.0  0.05235  0.27414  0.23921  1.0000
  O   O731      1.0  0.06229  0.27409  0.28703  1.0000
  O   O732      1.0  0.07540  0.30436  0.25804  1.0000
  C   C245      1.0  0.22381  0.27730  0.33162  1.0000
  O   O733      1.0  0.24477  0.27544  0.31740  1.0000
  O   O734      1.0  0.22265  0.29041  0.35513  1.0000
  O   O735      1.0  0.20395  0.26625  0.32217  1.0000
  C   C246      1.0  0.01924  0.87038  0.29826  1.0000
  O   O736      1.0  0.03784  0.85633  0.29155  1.0000
  O   O737      1.0  0.00008  0.87203  0.28088  1.0000
  O   O738      1.0  0.01976  0.88272  0.32241  1.0000
  C   C247      1.0  0.02130  0.00474  0.11714  1.0000
  O   O739      1.0  0.00654  0.99389  0.09879  1.0000
  O   O740      1.0  0.02039  0.99940  0.14478  1.0000
  O   O741      1.0  0.03712  0.02080  0.10781  1.0000
  C   C248      1.0  0.72256  0.44176  0.63196  1.0000
  O   O742      1.0  0.72607  0.44541  0.65972  1.0000
  O   O743      1.0  0.74070  0.43351  0.61589  1.0000
  O   O744      1.0  0.70093  0.44640  0.62026  1.0000
  C   C249      1.0  0.37324  0.93898  0.64890  1.0000
  O   O745      1.0  0.38814  0.94319  0.62702  1.0000
  O   O746      1.0  0.34922  0.93777  0.64468  1.0000
  O   O747      1.0  0.38238  0.93586  0.67495  1.0000
  C   C250      1.0  0.48409  0.08784  0.41406  1.0000
  O   O748      1.0  0.49723  0.08950  0.39024  1.0000
  O   O749      1.0  0.49342  0.09510  0.43878  1.0000
  O   O750      1.0  0.46168  0.07876  0.41321  1.0000
  C   C251      1.0  0.56406  0.48261  0.15046  1.0000
  O   O751      1.0  0.58497  0.48101  0.16482  1.0000
  O   O752      1.0  0.56251  0.49659  0.12773  1.0000
  O   O753      1.0  0.54476  0.47005  0.15865  1.0000
  C   C252      1.0  0.50478  0.41469  0.16098  1.0000
  O   O754      1.0  0.48976  0.39754  0.16917  1.0000
  O   O755      1.0  0.52540  0.40949  0.14730  1.0000
  O   O756      1.0  0.49921  0.43704  0.16654  1.0000
  C   C253      1.0  0.66542  0.28222  0.22541  1.0000
  O   O757      1.0  0.65103  0.27048  0.20746  1.0000
  O   O758      1.0  0.65768  0.28708  0.25169  1.0000
  O   O759      1.0  0.68745  0.28930  0.21698  1.0000
  C   C254      1.0  0.94537  0.94829  0.18320  1.0000
  O   O760      1.0  0.94989  0.95797  0.15787  1.0000
  O   O761      1.0  0.93344  0.92791  0.18479  1.0000
  O   O762      1.0  0.95269  0.95904  0.20695  1.0000
  C   C255      1.0  0.43431  0.70140  0.76184  1.0000
  O   O763      1.0  0.45597  0.69907  0.74922  1.0000
  O   O764      1.0  0.42789  0.72196  0.77323  1.0000
  O   O765      1.0  0.41917  0.68310  0.76332  1.0000
  C   C256      1.0  0.69335  0.31679  0.50171  1.0000
  O   O766      1.0  0.69263  0.29655  0.48742  1.0000
  O   O767      1.0  0.67508  0.32262  0.51908  1.0000
  O   O768      1.0  0.71244  0.33111  0.49882  1.0000
  C   C257      1.0  0.72420  0.09467  0.34326  1.0000
  O   O769      1.0  0.74711  0.08772  0.34772  1.0000
  O   O770      1.0  0.71888  0.11752  0.34244  1.0000
  O   O771      1.0  0.70665  0.07877  0.33935  1.0000
  C   C258      1.0  0.59260  0.54936  0.81240  1.0000
  O   O772      1.0  0.59063  0.55686  0.78558  1.0000
  O   O773      1.0  0.59904  0.56430  0.83294  1.0000
  O   O774      1.0  0.58830  0.52687  0.81864  1.0000
  C   C259      1.0  0.60315  0.76274  0.12666  1.0000
  O   O775      1.0  0.58738  0.77550  0.14179  1.0000
  O   O776      1.0  0.62681  0.76306  0.13322  1.0000
  O   O777      1.0  0.59526  0.74974  0.10489  1.0000
  C   C260      1.0  0.42002  0.56905  0.82112  1.0000
  O   O778      1.0  0.41342  0.54740  0.81347  1.0000
  O   O779      1.0  0.41515  0.58720  0.80407  1.0000
  O   O780      1.0  0.43148  0.57256  0.84581  1.0000
  C   C261      1.0  0.24847  0.75179  0.24327  1.0000
  O   O781      1.0  0.23881  0.74313  0.21941  1.0000
  O   O782      1.0  0.26149  0.77157  0.24244  1.0000
  O   O783      1.0  0.24497  0.74077  0.26800  1.0000
  C   C262      1.0  0.67322  0.04325  0.58961  1.0000
  O   O784      1.0  0.68828  0.05722  0.60411  1.0000
  O   O785      1.0  0.65584  0.03134  0.60328  1.0000
  O   O786      1.0  0.67568  0.04100  0.56148  1.0000
  C   C263      1.0  0.23265  0.20397  0.71254  1.0000
  O   O787      1.0  0.22329  0.19764  0.68747  1.0000
  O   O788      1.0  0.22326  0.22219  0.72666  1.0000
  O   O789      1.0  0.25132  0.19202  0.72357  1.0000
  C   C264      1.0  0.16847  0.11301  0.67468  1.0000
  O   O790      1.0  0.16310  0.09055  0.67977  1.0000
  O   O791      1.0  0.18334  0.12463  0.69220  1.0000
  O   O792      1.0  0.15898  0.12386  0.65207  1.0000
  C   C265      1.0  0.08028  0.28072  0.56157  1.0000
  O   O793      1.0  0.07816  0.27942  0.58983  1.0000
  O   O794      1.0  0.10019  0.29019  0.54997  1.0000
  O   O795      1.0  0.06249  0.27255  0.54492  1.0000
  C   C266      1.0  0.22861  0.29241  0.02385  1.0000
  O   O796      1.0  0.25073  0.30184  0.02691  1.0000
  O   O797      1.0  0.21820  0.29162  0.99820  1.0000
  O   O798      1.0  0.21694  0.28372  0.04644  1.0000
  C   C267      1.0  0.62069  0.44640  0.65820  1.0000
  O   O799      1.0  0.61485  0.42519  0.66815  1.0000
  O   O800      1.0  0.64352  0.45093  0.65011  1.0000
  O   O801      1.0  0.60364  0.46303  0.65608  1.0000
  C   C268      1.0  0.31019  0.91797  0.74142  1.0000
  O   O802      1.0  0.30804  0.94118  0.73844  1.0000
  O   O803      1.0  0.30310  0.90371  0.72045  1.0000
  O   O804      1.0  0.31919  0.90901  0.76546  1.0000
  C   C269      1.0  0.65409  0.47366  0.33497  1.0000
  O   O805      1.0  0.63722  0.47606  0.31472  1.0000
  O   O806      1.0  0.64765  0.46657  0.36098  1.0000
  O   O807      1.0  0.67737  0.47857  0.32930  1.0000
  C   C270      1.0  0.12077  0.13335  0.01688  1.0000
  O   O808      1.0  0.13078  0.11390  0.02757  1.0000
  O   O809      1.0  0.11765  0.15216  0.03342  1.0000
  O   O810      1.0  0.11387  0.13398  0.98965  1.0000
  C   C271      1.0  0.33073  0.22909  0.44767  1.0000
  O   O811      1.0  0.33877  0.20729  0.44312  1.0000
  O   O812      1.0  0.31220  0.23281  0.46550  1.0000
  O   O813      1.0  0.34114  0.24715  0.43427  1.0000
  C   C272      1.0  0.38505  0.10626  0.70257  1.0000
  O   O814      1.0  0.37796  0.09832  0.72798  1.0000
  O   O815      1.0  0.38977  0.09116  0.68155  1.0000
  O   O816      1.0  0.38738  0.12929  0.69815  1.0000
  C   C273      1.0  0.15218  0.95395  0.86874  1.0000
  O   O817      1.0  0.17624  0.95062  0.86779  1.0000
  O   O818      1.0  0.14021  0.96064  0.84537  1.0000
  O   O819      1.0  0.14006  0.95040  0.89299  1.0000
  C   C274      1.0  0.01464  0.74456  0.03732  1.0000
  O   O820      1.0  0.01224  0.72559  0.02089  1.0000
  O   O821      1.0  0.02229  0.74232  0.06416  1.0000
  O   O822      1.0  0.00961  0.76580  0.02684  1.0000
  C   C275      1.0  0.55989  0.44059  0.27491  1.0000
  O   O823      1.0  0.57931  0.45035  0.26254  1.0000
  O   O824      1.0  0.55948  0.41752  0.27991  1.0000
  O   O825      1.0  0.54098  0.45393  0.28250  1.0000
  C   C276      1.0  0.21523  0.52371  0.46529  1.0000
  O   O826      1.0  0.22468  0.52790  0.49098  1.0000
  O   O827      1.0  0.20369  0.50352  0.46021  1.0000
  O   O828      1.0  0.21750  0.53964  0.44463  1.0000
  C   C277      1.0  0.36527  0.52083  0.16178  1.0000
  O   O829      1.0  0.37907  0.51694  0.18470  1.0000
  O   O830      1.0  0.37330  0.53489  0.14108  1.0000
  O   O831      1.0  0.34354  0.51049  0.15945  1.0000
  C   C278      1.0  0.78233  0.91919  0.43297  1.0000
  O   O832      1.0  0.80146  0.91419  0.41650  1.0000
  O   O833      1.0  0.77659  0.94152  0.43841  1.0000
  O   O834      1.0  0.76906  0.90187  0.44417  1.0000
  C   C279      1.0  0.31467  0.25631  0.92705  1.0000
  O   O835      1.0  0.32069  0.23519  0.91697  1.0000
  O   O836      1.0  0.32875  0.26674  0.94646  1.0000
  O   O837      1.0  0.29461  0.26705  0.91764  1.0000
  C   C280      1.0  0.23828  0.70926  0.93094  1.0000
  O   O838      1.0  0.23924  0.68609  0.92688  1.0000
  O   O839      1.0  0.24970  0.72369  0.91296  1.0000
  O   O840      1.0  0.22570  0.71801  0.95282  1.0000
  C   C281      1.0  0.54634  0.62352  0.40783  1.0000
  O   O841      1.0  0.55969  0.63705  0.42499  1.0000
  O   O842      1.0  0.52660  0.63230  0.39509  1.0000
  O   O843      1.0  0.55258  0.60114  0.40363  1.0000
  C   C282      1.0  0.58021  0.03950  0.75894  1.0000
  O   O844      1.0  0.58821  0.03083  0.73425  1.0000
  O   O845      1.0  0.58684  0.02945  0.78341  1.0000
  O   O846      1.0  0.56557  0.05822  0.75915  1.0000
  C   C283      1.0  0.31883  0.75983  0.28042  1.0000
  O   O847      1.0  0.33539  0.74796  0.29545  1.0000
  O   O848      1.0  0.32567  0.77215  0.25760  1.0000
  O   O849      1.0  0.29543  0.75932  0.28814  1.0000
  C   C284      1.0  0.11739  0.17051  0.81249  1.0000
  O   O850      1.0  0.10715  0.18946  0.80080  1.0000
  O   O851      1.0  0.14160  0.16895  0.81435  1.0000
  O   O852      1.0  0.10342  0.15303  0.82206  1.0000
  C   C285      1.0  0.30595  0.38800  0.05323  1.0000
  O   O853      1.0  0.29585  0.38020  0.02918  1.0000
  O   O854      1.0  0.32346  0.37554  0.06590  1.0000
  O   O855      1.0  0.29840  0.40815  0.06473  1.0000
  C   C286      1.0  0.00772  0.07713  0.22516  1.0000
  O   O856      1.0  0.03025  0.08591  0.22618  1.0000
  O   O857      1.0  0.00187  0.06134  0.20531  1.0000
  O   O858      1.0  0.99103  0.08414  0.24400  1.0000
  C   C287      1.0  0.54739  0.45284  0.37346  1.0000
  O   O859      1.0  0.55510  0.47481  0.37749  1.0000
  O   O860      1.0  0.53763  0.44083  0.39503  1.0000
  O   O861      1.0  0.54974  0.44276  0.34796  1.0000
  C   C288      1.0  0.15366  0.00679  0.42932  1.0000
  O   O862      1.0  0.14521  0.01565  0.45370  1.0000
  O   O863      1.0  0.17638  0.99851  0.42794  1.0000
  O   O864      1.0  0.13946  0.00642  0.40626  1.0000
  C   C289      1.0  0.91571  0.94304  0.97621  1.0000
  O   O865      1.0  0.90743  0.94975  0.00165  1.0000
  O   O866      1.0  0.93762  0.95011  0.96734  1.0000
  O   O867      1.0  0.90210  0.92924  0.95965  1.0000
  C   C290      1.0  0.40139  0.14201  0.08564  1.0000
  O   O868      1.0  0.39034  0.13682  0.11016  1.0000
  O   O869      1.0  0.42557  0.14444  0.08481  1.0000
  O   O870      1.0  0.38824  0.14499  0.06202  1.0000
  C   C291      1.0  0.17393  0.01811  0.04740  1.0000
  O   O871      1.0  0.19715  0.01387  0.04070  1.0000
  O   O872      1.0  0.15753  0.02157  0.02684  1.0000
  O   O873      1.0  0.16711  0.01890  0.07465  1.0000
  C   C292      1.0  0.42021  0.87770  0.05006  1.0000
  O   O874      1.0  0.43830  0.89334  0.05093  1.0000
  O   O875      1.0  0.40775  0.87263  0.07368  1.0000
  O   O876      1.0  0.41468  0.86700  0.02562  1.0000
  C   C293      1.0  0.50408  0.94454  0.38414  1.0000
  O   O877      1.0  0.48391  0.94149  0.39957  1.0000
  O   O878      1.0  0.52095  0.92767  0.38316  1.0000
  O   O879      1.0  0.50739  0.96445  0.36967  1.0000
  C   C294      1.0  0.82678  0.04124  0.78437  1.0000
  O   O880      1.0  0.83054  0.01883  0.77733  1.0000
  O   O881      1.0  0.84571  0.05537  0.78936  1.0000
  O   O882      1.0  0.80411  0.04959  0.78615  1.0000
  C   C295      1.0  0.10370  0.55259  0.98356  1.0000
  O   O883      1.0  0.10763  0.53230  0.99700  1.0000
  O   O884      1.0  0.08375  0.56513  0.98932  1.0000
  O   O885      1.0  0.11982  0.56046  0.96455  1.0000
  C   C296      1.0  0.79190  0.83340  0.43562  1.0000
  O   O886      1.0  0.78192  0.84401  0.45811  1.0000
  O   O887      1.0  0.79865  0.84602  0.41302  1.0000
  O   O888      1.0  0.79516  0.81018  0.43575  1.0000
  C   C297      1.0  0.38503  0.89337  0.19373  1.0000
  O   O889      1.0  0.37064  0.91170  0.18819  1.0000
  O   O890      1.0  0.40636  0.89662  0.20680  1.0000
  O   O891      1.0  0.37820  0.87181  0.18596  1.0000
  C   C298      1.0  0.33288  0.12318  0.48604  1.0000
  O   O892      1.0  0.31680  0.11708  0.50603  1.0000
  O   O893      1.0  0.34950  0.10772  0.47716  1.0000
  O   O894      1.0  0.33233  0.14474  0.47493  1.0000
  C   C299      1.0  0.26891  0.00538  0.09967  1.0000
  O   O895      1.0  0.27947  0.02122  0.08276  1.0000
  O   O896      1.0  0.24611  0.99842  0.09452  1.0000
  O   O897      1.0  0.28110  0.99660  0.12183  1.0000
  C   C300      1.0  0.36619  0.66368  0.85655  1.0000
  O   O898      1.0  0.37985  0.64483  0.86205  1.0000
  O   O899      1.0  0.36592  0.68167  0.87475  1.0000
  O   O900      1.0  0.35270  0.66449  0.83293  1.0000
  C   C301      1.0  0.26925  0.98663  0.54887  1.0000
  O   O901      1.0  0.25284  0.00374  0.55199  1.0000
  O   O902      1.0  0.29112  0.99142  0.53787  1.0000
  O   O903      1.0  0.26370  0.96470  0.55648  1.0000
  C   C302      1.0  0.10889  0.54041  0.71040  1.0000
  O   O904      1.0  0.11369  0.51889  0.72015  1.0000
  O   O905      1.0  0.12205  0.55866  0.71939  1.0000
  O   O906      1.0  0.09081  0.54369  0.69182  1.0000
  C   C303      1.0  0.44537  0.09452  0.18408  1.0000
  O   O907      1.0  0.43316  0.07909  0.16814  1.0000
  O   O908      1.0  0.43686  0.11631  0.18728  1.0000
  O   O909      1.0  0.46619  0.08822  0.19661  1.0000
  C   C304      1.0  0.19187  0.60530  0.67840  1.0000
  O   O910      1.0  0.20110  0.58365  0.67701  1.0000
  O   O911      1.0  0.17500  0.61046  0.69788  1.0000
  O   O912      1.0  0.19938  0.62175  0.66017  1.0000
  C   C305      1.0  0.44870  0.27491  0.52819  1.0000
  O   O913      1.0  0.46532  0.26511  0.54519  1.0000
  O   O914      1.0  0.45227  0.29650  0.51797  1.0000
  O   O915      1.0  0.42841  0.26318  0.52159  1.0000
  C   C306      1.0  0.88645  0.57818  0.10993  1.0000
  O   O916      1.0  0.88443  0.55684  0.09846  1.0000
  O   O917      1.0  0.87467  0.59632  0.09835  1.0000
  O   O918      1.0  0.90043  0.58143  0.13285  1.0000
  C   C307      1.0  0.79112  0.71326  0.17555  1.0000
  O   O919      1.0  0.80061  0.71491  0.20163  1.0000
  O   O920      1.0  0.80564  0.70943  0.15323  1.0000
  O   O921      1.0  0.76713  0.71547  0.17178  1.0000
  C   C308      1.0  0.35990  0.87973  0.83168  1.0000
  O   O922      1.0  0.37110  0.88950  0.85394  1.0000
  O   O923      1.0  0.35877  0.85640  0.82937  1.0000
  O   O924      1.0  0.34984  0.89330  0.81171  1.0000
  C   C309      1.0  0.23582  0.16907  0.27542  1.0000
  O   O925      1.0  0.25710  0.16033  0.28421  1.0000
  O   O926      1.0  0.23483  0.18212  0.25186  1.0000
  O   O927      1.0  0.21550  0.16457  0.29006  1.0000
  C   C310      1.0  0.77723  0.26824  0.58259  1.0000
  O   O928      1.0  0.80113  0.27141  0.58622  1.0000
  O   O929      1.0  0.76916  0.25038  0.56680  1.0000
  O   O930      1.0  0.76141  0.28306  0.59455  1.0000
  C   C311      1.0  0.37686  0.29935  0.00351  1.0000
  O   O931      1.0  0.40036  0.30105  0.99649  1.0000
  O   O932      1.0  0.35971  0.30572  0.98491  1.0000
  O   O933      1.0  0.37052  0.29129  0.02914  1.0000
  C   C312      1.0  0.50908  0.77527  0.94841  1.0000
  O   O934      1.0  0.49300  0.76246  0.96301  1.0000
  O   O935      1.0  0.50138  0.79009  0.92832  1.0000
  O   O936      1.0  0.53285  0.77326  0.95390  1.0000
  C   C313      1.0  0.95736  0.08980  0.75191  1.0000
  O   O937      1.0  0.96987  0.10368  0.73427  1.0000
  O   O938      1.0  0.96892  0.07329  0.76689  1.0000
  O   O939      1.0  0.93346  0.09306  0.75544  1.0000
  C   C314      1.0  0.57735  0.92031  0.54026  1.0000
  O   O940      1.0  0.58403  0.92978  0.56504  1.0000
  O   O941      1.0  0.55420  0.92170  0.53172  1.0000
  O   O942      1.0  0.59380  0.90940  0.52405  1.0000
  C   C315      1.0  0.85229  0.17916  0.76301  1.0000
  O   O943      1.0  0.86260  0.18187  0.73749  1.0000
  O   O944      1.0  0.83524  0.19423  0.77177  1.0000
  O   O945      1.0  0.85885  0.16125  0.77965  1.0000
  C   C316      1.0  0.51390  0.48101  0.98276  1.0000
  O   O946      1.0  0.52832  0.47792  0.96019  1.0000
  O   O947      1.0  0.50992  0.50259  0.99282  1.0000
  O   O948      1.0  0.50331  0.46255  0.99512  1.0000
  C   C317      1.0  0.18007  0.94101  0.07449  1.0000
  O   O949      1.0  0.19616  0.92406  0.06890  1.0000
  O   O950      1.0  0.18726  0.96060  0.08763  1.0000
  O   O951      1.0  0.15674  0.93829  0.06717  1.0000
  C   C318      1.0  0.63019  0.03651  0.97294  1.0000
  O   O952      1.0  0.62886  0.04681  0.94747  1.0000
  O   O953      1.0  0.61446  0.01957  0.97983  1.0000
  O   O954      1.0  0.64710  0.04331  0.99162  1.0000
  C   C319      1.0  0.60959  0.36038  0.69750  1.0000
  O   O955      1.0  0.61782  0.37374  0.71877  1.0000
  O   O956      1.0  0.59482  0.34233  0.70300  1.0000
  O   O957      1.0  0.61607  0.36512  0.67073  1.0000
  C   C320      1.0  0.83281  0.90385  0.30982  1.0000
  O   O958      1.0  0.81635  0.88844  0.31924  1.0000
  O   O959      1.0  0.84018  0.90311  0.28277  1.0000
  O   O960      1.0  0.84183  0.92005  0.32744  1.0000
  C   C321      1.0  0.24783  0.50295  0.90346  1.0000
  O   O961      1.0  0.26842  0.50180  0.88839  1.0000
  O   O962      1.0  0.22652  0.49821  0.89104  1.0000
  O   O963      1.0  0.24854  0.50905  0.93088  1.0000
  C   C322      1.0  0.97858  0.54445  0.56384  1.0000
  O   O964      1.0  0.98108  0.56595  0.57475  1.0000
  O   O965      1.0  0.98146  0.54100  0.53594  1.0000
  O   O966      1.0  0.97304  0.52643  0.58080  1.0000
  C   C323      1.0  0.42300  0.75276  0.98887  1.0000
  O   O967      1.0  0.40282  0.75766  0.97417  1.0000
  O   O968      1.0  0.44159  0.76787  0.98890  1.0000
  O   O969      1.0  0.42450  0.73285  0.00376  1.0000
  C   C324      1.0  0.75234  0.80873  0.77631  1.0000
  O   O970      1.0  0.76037  0.78930  0.76349  1.0000
  O   O971      1.0  0.76766  0.82190  0.79155  1.0000
  O   O972      1.0  0.72895  0.81489  0.77409  1.0000
  C   C325      1.0  0.36980  0.73002  0.66625  1.0000
  O   O973      1.0  0.36059  0.74758  0.68167  1.0000
  O   O974      1.0  0.37086  0.73180  0.63796  1.0000
  O   O975      1.0  0.37798  0.71068  0.67914  1.0000
  C   C326      1.0  0.58969  0.53043  0.52799  1.0000
  O   O976      1.0  0.59359  0.54322  0.50463  1.0000
  O   O977      1.0  0.57655  0.53925  0.54937  1.0000
  O   O978      1.0  0.59887  0.50879  0.52994  1.0000
  C   C327      1.0  0.84247  0.83148  0.47522  1.0000
  O   O979      1.0  0.86357  0.82309  0.48504  1.0000
  O   O980      1.0  0.84192  0.84350  0.45085  1.0000
  O   O981      1.0  0.82193  0.82786  0.48979  1.0000
  C   C328      1.0  0.03550  0.15503  0.60819  1.0000
  O   O982      1.0  0.05865  0.15640  0.59967  1.0000
  O   O983      1.0  0.02817  0.16682  0.63120  1.0000
  O   O984      1.0  0.01961  0.14202  0.59356  1.0000
  C   C329      1.0  0.00847  0.35778  0.98026  1.0000
  O   O985      1.0  0.00181  0.36933  0.00372  1.0000
  O   O986      1.0  0.99157  0.34835  0.96333  1.0000
  O   O987      1.0  0.03205  0.35546  0.97387  1.0000
  C   C330      1.0  0.04900  0.83938  0.37186  1.0000
  O   O988      1.0  0.04674  0.86266  0.37382  1.0000
  O   O989      1.0  0.04664  0.82605  0.39506  1.0000
  O   O990      1.0  0.05363  0.82944  0.34671  1.0000
  C   C331      1.0  0.73449  0.10035  0.06478  1.0000
  O   O991      1.0  0.73258  0.11387  0.04168  1.0000
  O   O992      1.0  0.71444  0.09262  0.07785  1.0000
  O   O993      1.0  0.75643  0.09458  0.07482  1.0000
  C   C332      1.0  0.58498  0.07948  0.97939  1.0000
  O   O994      1.0  0.58972  0.07502  0.95205  1.0000
  O   O995      1.0  0.59924  0.07053  0.99968  1.0000
  O   O996      1.0  0.56611  0.09308  0.98642  1.0000
  C   C333      1.0  0.75109  0.14202  0.24008  1.0000
  O   O997      1.0  0.76735  0.15027  0.22146  1.0000
  O   O998      1.0  0.72754  0.14731  0.23714  1.0000
  O   O999      1.0  0.75837  0.12828  0.26147  1.0000
  C   C334      1.0  0.83115  0.37814  0.45173  1.0000
  O   O1000     1.0  0.83714  0.39969  0.46044  1.0000
  O   O1001     1.0  0.81945  0.37520  0.42709  1.0000
  O   O1002     1.0  0.83701  0.35953  0.46758  1.0000
  C   C335      1.0  0.26122  0.63689  0.97941  1.0000
  O   O1003     1.0  0.27071  0.65557  0.99249  1.0000
  O   O1004     1.0  0.24350  0.63967  0.96024  1.0000
  O   O1005     1.0  0.26946  0.61541  0.98548  1.0000
  C   C336      1.0  0.84117  0.08718  0.08968  1.0000
  O   O1006     1.0  0.85953  0.07350  0.09816  1.0000
  O   O1007     1.0  0.82023  0.07756  0.08115  1.0000
  O   O1008     1.0  0.84383  0.11047  0.08949  1.0000
  C   C337      1.0  0.48299  0.70092  0.66862  1.0000
  O   O1009     1.0  0.50488  0.70346  0.65663  1.0000
  O   O1010     1.0  0.46408  0.71333  0.65901  1.0000
  O   O1011     1.0  0.48002  0.68597  0.69022  1.0000
  C   C338      1.0  0.29339  0.06509  0.63386  1.0000
  O   O1012     1.0  0.31453  0.07615  0.63803  1.0000
  O   O1013     1.0  0.27266  0.07732  0.63286  1.0000
  O   O1014     1.0  0.29300  0.04183  0.63043  1.0000
  C   C339      1.0  0.45399  0.81643  0.84944  1.0000
  O   O1015     1.0  0.46323  0.79692  0.83798  1.0000
  O   O1016     1.0  0.43796  0.82930  0.83483  1.0000
  O   O1017     1.0  0.46090  0.82316  0.87543  1.0000
  C   C340      1.0  0.72570  0.86745  0.39660  1.0000
  O   O1018     1.0  0.72922  0.85866  0.37059  1.0000
  O   O1019     1.0  0.74383  0.86730  0.41554  1.0000
  O   O1020     1.0  0.70399  0.87620  0.40375  1.0000
  C   C341      1.0  0.38833  0.89245  0.59524  1.0000
  O   O1021     1.0  0.40564  0.90838  0.59026  1.0000
  O   O1022     1.0  0.36659  0.89922  0.60500  1.0000
  O   O1023     1.0  0.39269  0.86976  0.59031  1.0000
  C   C342      1.0  0.68012  0.00784  0.34396  1.0000
  O   O1024     1.0  0.66964  0.00710  0.31834  1.0000
  O   O1025     1.0  0.67538  0.99112  0.36307  1.0000
  O   O1026     1.0  0.69517  0.02543  0.35055  1.0000
  C   C343      1.0  0.11599  0.90153  0.96648  1.0000
  O   O1027     1.0  0.10513  0.88103  0.97185  1.0000
  O   O1028     1.0  0.10944  0.91409  0.94375  1.0000
  O   O1029     1.0  0.13343  0.90943  0.98379  1.0000
  C   C344      1.0  0.70955  0.43463  0.37867  1.0000
  O   O1030     1.0  0.71510  0.45252  0.36150  1.0000
  O   O1031     1.0  0.69122  0.43665  0.39718  1.0000
  O   O1032     1.0  0.72251  0.41482  0.37755  1.0000
  C   C345      1.0  0.41510  0.48723  0.97312  1.0000
  O   O1033     1.0  0.42859  0.50365  0.98588  1.0000
  O   O1034     1.0  0.42575  0.47094  0.95693  1.0000
  O   O1035     1.0  0.39096  0.48710  0.97657  1.0000
  C   C346      1.0  0.50861  0.54960  0.33183  1.0000
  O   O1036     1.0  0.51912  0.55951  0.35447  1.0000
  O   O1037     1.0  0.50966  0.56020  0.30652  1.0000
  O   O1038     1.0  0.49698  0.52914  0.33453  1.0000
  C   C347      1.0  0.71767  0.02373  0.80790  1.0000
  O   O1039     1.0  0.71286  0.04639  0.80338  1.0000
  O   O1040     1.0  0.72357  0.00982  0.78609  1.0000
  O   O1041     1.0  0.71680  0.01502  0.83425  1.0000
  C   C348      1.0  0.15600  0.13717  0.51916  1.0000
  O   O1042     1.0  0.16607  0.14033  0.49358  1.0000
  O   O1043     1.0  0.14808  0.15562  0.53403  1.0000
  O   O1044     1.0  0.15387  0.11556  0.52986  1.0000
  C   C349      1.0  0.68818  0.35759  0.20938  1.0000
  O   O1045     1.0  0.70766  0.34407  0.20484  1.0000
  O   O1046     1.0  0.66991  0.35773  0.19063  1.0000
  O   O1047     1.0  0.68709  0.37115  0.23251  1.0000
  C   C350      1.0  0.97229  0.60903  0.48113  1.0000
  O   O1048     1.0  0.98844  0.62129  0.46596  1.0000
  O   O1049     1.0  0.94951  0.61690  0.48398  1.0000
  O   O1050     1.0  0.97888  0.58885  0.49333  1.0000
  C   C351      1.0  0.09220  0.34426  0.59043  1.0000
  O   O1051     1.0  0.08507  0.34080  0.56360  1.0000
  O   O1052     1.0  0.10297  0.32693  0.60485  1.0000
  O   O1053     1.0  0.08858  0.36504  0.60285  1.0000
  C   C352      1.0  0.02168  0.29697  0.17235  1.0000
  O   O1054     1.0  0.04597  0.29589  0.17170  1.0000
  O   O1055     1.0  0.01054  0.31080  0.19124  1.0000
  O   O1056     1.0  0.00853  0.28423  0.15411  1.0000
  C   C353      1.0  0.94999  0.74214  0.05360  1.0000
  O   O1057     1.0  0.95051  0.76350  0.04192  1.0000
  O   O1058     1.0  0.97076  0.73152  0.06086  1.0000
  O   O1059     1.0  0.92869  0.73149  0.05822  1.0000
  C   C354      1.0  0.48387  0.90659  0.51159  1.0000
  O   O1060     1.0  0.48235  0.90817  0.53988  1.0000
  O   O1061     1.0  0.46467  0.89937  0.49651  1.0000
  O   O1062     1.0  0.50471  0.91190  0.49842  1.0000
  C   C355      1.0  0.63108  0.99163  0.20280  1.0000
  O   O1063     1.0  0.62425  0.01293  0.19407  1.0000
  O   O1064     1.0  0.64024  0.98874  0.22889  1.0000
  O   O1065     1.0  0.62853  0.97317  0.18555  1.0000
  C   C356      1.0  0.68999  0.74445  0.05011  1.0000
  O   O1066     1.0  0.68077  0.76059  0.06766  1.0000
  O   O1067     1.0  0.67539  0.72843  0.03831  1.0000
  O   O1068     1.0  0.71376  0.74446  0.04414  1.0000
  C   C357      1.0  0.29819  0.07996  0.45432  1.0000
  O   O1069     1.0  0.31462  0.06862  0.47012  1.0000
  O   O1070     1.0  0.28193  0.06787  0.43910  1.0000
  O   O1071     1.0  0.29817  0.10338  0.45353  1.0000
  C   C358      1.0  0.35630  0.50490  0.85779  1.0000
  O   O1072     1.0  0.37569  0.50420  0.84065  1.0000
  O   O1073     1.0  0.35181  0.52407  0.87325  1.0000
  O   O1074     1.0  0.34141  0.48643  0.85945  1.0000
  C   C359      1.0  0.83479  0.54413  0.58410  1.0000
  O   O1075     1.0  0.83757  0.55484  0.60917  1.0000
  O   O1076     1.0  0.82014  0.52552  0.58190  1.0000
  O   O1077     1.0  0.84677  0.55197  0.56128  1.0000
  C   C360      1.0  0.22186  0.98443  0.24810  1.0000
  O   O1078     1.0  0.24339  0.98270  0.23507  1.0000
  O   O1079     1.0  0.21969  0.99734  0.27166  1.0000
  O   O1080     1.0  0.20243  0.97342  0.23740  1.0000
  C   C361      1.0  0.33471  0.50044  0.27098  1.0000
  O   O1081     1.0  0.35872  0.49672  0.27116  1.0000
  O   O1082     1.0  0.32525  0.51805  0.28612  1.0000
  O   O1083     1.0  0.32016  0.48656  0.25565  1.0000
  C   C362      1.0  0.32525  0.66177  0.32248  1.0000
  O   O1084     1.0  0.31082  0.65130  0.30346  1.0000
  O   O1085     1.0  0.34401  0.67482  0.31371  1.0000
  O   O1086     1.0  0.32080  0.65937  0.35026  1.0000
  C   C363      1.0  0.10932  0.79726  0.28821  1.0000
  O   O1087     1.0  0.12139  0.77702  0.29059  1.0000
  O   O1088     1.0  0.09126  0.80226  0.30625  1.0000
  O   O1089     1.0  0.11529  0.81250  0.26779  1.0000
  C   C364      1.0  0.80037  0.47187  0.38973  1.0000
  O   O1090     1.0  0.77880  0.48183  0.39486  1.0000
  O   O1091     1.0  0.80182  0.44877  0.38527  1.0000
  O   O1092     1.0  0.82052  0.48498  0.38930  1.0000
  C   C365      1.0  0.82701  0.65954  0.87975  1.0000
  O   O1093     1.0  0.83523  0.63942  0.86881  1.0000
  O   O1094     1.0  0.83458  0.68001  0.86910  1.0000
  O   O1095     1.0  0.81140  0.65921  0.90154  1.0000
  C   C366      1.0  0.10012  0.59480  0.77085  1.0000
  O   O1096     1.0  0.12200  0.58463  0.77229  1.0000
  O   O1097     1.0  0.09439  0.60820  0.74852  1.0000
  O   O1098     1.0  0.08399  0.59160  0.79175  1.0000
  C   C367      1.0  0.33003  0.84082  0.75020  1.0000
  O   O1099     1.0  0.32107  0.82236  0.73617  1.0000
  O   O1100     1.0  0.31612  0.85971  0.75454  1.0000
  O   O1101     1.0  0.35288  0.84039  0.75990  1.0000
  C   C368      1.0  0.02938  0.71891  0.61281  1.0000
  O   O1102     1.0  0.03732  0.72470  0.63873  1.0000
  O   O1103     1.0  0.04445  0.72008  0.59056  1.0000
  O   O1104     1.0  0.00630  0.71217  0.60910  1.0000
  C   C369      1.0  0.38163  0.34796  0.04796  1.0000
  O   O1105     1.0  0.40469  0.34162  0.04321  1.0000
  O   O1106     1.0  0.37031  0.36231  0.02981  1.0000
  O   O1107     1.0  0.36984  0.33982  0.07077  1.0000
  C   C370      1.0  0.03149  0.25710  0.35421  1.0000
  O   O1108     1.0  0.03518  0.27819  0.34259  1.0000
  O   O1109     1.0  0.01463  0.24277  0.34340  1.0000
  O   O1110     1.0  0.04451  0.25044  0.37681  1.0000
  C   C371      1.0  0.68800  0.95687  0.06514  1.0000
  O   O1111     1.0  0.68846  0.96687  0.09084  1.0000
  O   O1112     1.0  0.69212  0.96981  0.04194  1.0000
  O   O1113     1.0  0.68366  0.93391  0.06267  1.0000
  C   C372      1.0  0.11039  0.69944  0.98180  1.0000
  O   O1114     1.0  0.11376  0.72255  0.98424  1.0000
  O   O1115     1.0  0.10184  0.69046  0.95753  1.0000
  O   O1116     1.0  0.11554  0.68529  0.00363  1.0000
  C   C373      1.0  0.06702  0.75625  0.27771  1.0000
  O   O1117     1.0  0.08356  0.74669  0.26042  1.0000
  O   O1118     1.0  0.05596  0.77623  0.27037  1.0000
  O   O1119     1.0  0.06171  0.74597  0.30247  1.0000
  C   C374      1.0  0.20864  0.21516  0.45709  1.0000
  O   O1120     1.0  0.22643  0.19931  0.45466  1.0000
  O   O1121     1.0  0.19190  0.21717  0.43662  1.0000
  O   O1122     1.0  0.20767  0.22910  0.47989  1.0000
  C   C375      1.0  0.66148  0.40260  0.01257  1.0000
  O   O1123     1.0  0.66477  0.39861  0.98484  1.0000
  O   O1124     1.0  0.67865  0.41365  0.02757  1.0000
  O   O1125     1.0  0.64090  0.39574  0.02524  1.0000
  C   C376      1.0  0.89939  0.09810  0.05216  1.0000
  O   O1126     1.0  0.91452  0.11148  0.03695  1.0000
  O   O1127     1.0  0.88207  0.08567  0.03911  1.0000
  O   O1128     1.0  0.90146  0.09729  0.08045  1.0000
  C   C377      1.0  0.23022  0.68603  0.30172  1.0000
  O   O1129     1.0  0.25271  0.69287  0.29476  1.0000
  O   O1130     1.0  0.21140  0.70047  0.29756  1.0000
  O   O1131     1.0  0.22653  0.66467  0.31258  1.0000
  C   C378      1.0  0.55476  0.52680  0.42037  1.0000
  O   O1132     1.0  0.56896  0.51046  0.43217  1.0000
  O   O1133     1.0  0.55308  0.52836  0.39209  1.0000
  O   O1134     1.0  0.54208  0.54146  0.43685  1.0000
  C   C379      1.0  0.94429  0.33137  0.01701  1.0000
  O   O1135     1.0  0.95512  0.35231  0.01538  1.0000
  O   O1136     1.0  0.95161  0.31578  0.03642  1.0000
  O   O1137     1.0  0.92599  0.32611  0.99942  1.0000
  C   C380      1.0  0.02058  0.85416  0.73162  1.0000
  O   O1138     1.0  0.02886  0.84476  0.75578  1.0000
  O   O1139     1.0  0.01559  0.84039  0.70938  1.0000
  O   O1140     1.0  0.01716  0.87730  0.72974  1.0000
  C   C381      1.0  0.89043  0.23576  0.45768  1.0000
  O   O1141     1.0  0.90732  0.25094  0.46654  1.0000
  O   O1142     1.0  0.87942  0.22164  0.47635  1.0000
  O   O1143     1.0  0.88469  0.23455  0.43011  1.0000
  C   C382      1.0  0.30412  0.73271  0.84363  1.0000
  O   O1144     1.0  0.31947  0.71808  0.83057  1.0000
  O   O1145     1.0  0.30932  0.75556  0.84524  1.0000
  O   O1146     1.0  0.28366  0.72446  0.85530  1.0000
  C   C383      1.0  0.56843  0.96256  0.77324  1.0000
  O   O1147     1.0  0.57744  0.98141  0.76003  1.0000
  O   O1148     1.0  0.58296  0.94917  0.78923  1.0000
  O   O1149     1.0  0.54495  0.95698  0.77023  1.0000
  C   C384      1.0  0.37569  0.10720  0.38178  1.0000
  O   O1150     1.0  0.37081  0.12528  0.36463  1.0000
  O   O1151     1.0  0.38078  0.08617  0.37075  1.0000
  O   O1152     1.0  0.37548  0.11015  0.40997  1.0000
  C   C385      1.0  0.77479  0.36099  0.61817  1.0000
  O   O1153     1.0  0.75396  0.35990  0.63276  1.0000
  O   O1154     1.0  0.78039  0.34412  0.59957  1.0000
  O   O1155     1.0  0.79008  0.37890  0.62226  1.0000
  C   C386      1.0  0.24608  0.22174  0.39509  1.0000
  O   O1156     1.0  0.26387  0.22024  0.41438  1.0000
  O   O1157     1.0  0.24246  0.24179  0.38102  1.0000
  O   O1158     1.0  0.23176  0.20326  0.39007  1.0000
  C   C387      1.0  0.91835  0.66879  0.53945  1.0000
  O   O1159     1.0  0.92659  0.67282  0.56573  1.0000
  O   O1160     1.0  0.92876  0.65229  0.52336  1.0000
  O   O1161     1.0  0.89983  0.68140  0.52917  1.0000
  C   C388      1.0  0.03786  0.23503  0.57945  1.0000
  O   O1162     1.0  0.05469  0.21811  0.57978  1.0000
  O   O1163     1.0  0.03386  0.24787  0.60275  1.0000
  O   O1164     1.0  0.02505  0.23912  0.55582  1.0000
  C   C389      1.0  0.45475  0.34427  0.43152  1.0000
  O   O1165     1.0  0.45548  0.33750  0.40433  1.0000
  O   O1166     1.0  0.45089  0.36679  0.43797  1.0000
  O   O1167     1.0  0.45769  0.32850  0.45225  1.0000
  C   C390      1.0  0.88629  0.08093  0.17205  1.0000
  O   O1168     1.0  0.89245  0.08997  0.14685  1.0000
  O   O1169     1.0  0.89870  0.06276  0.18262  1.0000
  O   O1170     1.0  0.86758  0.08991  0.18657  1.0000
  C   C391      1.0  0.49737  0.40997  0.34856  1.0000
  O   O1171     1.0  0.51197  0.39455  0.36147  1.0000
  O   O1172     1.0  0.50149  0.41599  0.32152  1.0000
  O   O1173     1.0  0.47870  0.41943  0.36270  1.0000
  C   C392      1.0  0.70215  0.17498  0.81513  1.0000
  O   O1174     1.0  0.69787  0.18795  0.83829  1.0000
  O   O1175     1.0  0.69407  0.15289  0.81384  1.0000
  O   O1176     1.0  0.71345  0.18448  0.79273  1.0000
  C   C393      1.0  0.02051  0.15655  0.99292  1.0000
  O   O1177     1.0  0.04083  0.15858  0.97751  1.0000
  O   O1178     1.0  0.02192  0.15246  0.02085  1.0000
  O   O1179     1.0  0.99879  0.15883  0.98046  1.0000
  C   C394      1.0  0.45099  0.23381  0.15748  1.0000
  O   O1180     1.0  0.44612  0.23205  0.18523  1.0000
  O   O1181     1.0  0.47017  0.22260  0.14649  1.0000
  O   O1182     1.0  0.43656  0.24660  0.14067  1.0000
  C   C395      1.0  0.32250  0.90017  0.55427  1.0000
  O   O1183     1.0  0.33261  0.87886  0.55477  1.0000
  O   O1184     1.0  0.30857  0.90658  0.53232  1.0000
  O   O1185     1.0  0.32612  0.91499  0.57587  1.0000
  C   C396      1.0  0.98151  0.50730  0.73501  1.0000
  O   O1186     1.0  0.98787  0.52403  0.75347  1.0000
  O   O1187     1.0  0.96005  0.50844  0.72172  1.0000
  O   O1188     1.0  0.99651  0.48931  0.73007  1.0000
  C   C397      1.0  0.15032  0.81439  0.66939  1.0000
  O   O1189     1.0  0.16483  0.83304  0.67220  1.0000
  O   O1190     1.0  0.14099  0.80902  0.64398  1.0000
  O   O1191     1.0  0.14525  0.80102  0.69196  1.0000
  C   C398      1.0  0.72054  0.96544  0.30974  1.0000
  O   O1192     1.0  0.69751  0.96146  0.31751  1.0000
  O   O1193     1.0  0.72668  0.96491  0.28225  1.0000
  O   O1194     1.0  0.73741  0.96998  0.32944  1.0000
  C   C399      1.0  0.20509  0.77877  0.05840  1.0000
  O   O1195     1.0  0.19829  0.79050  0.03513  1.0000
  O   O1196     1.0  0.19376  0.78261  0.08311  1.0000
  O   O1197     1.0  0.22333  0.76331  0.05701  1.0000
  C   C400      1.0  0.56877  0.11752  0.59185  1.0000
  O   O1198     1.0  0.58714  0.13097  0.58286  1.0000
  O   O1199     1.0  0.55502  0.12449  0.61371  1.0000
  O   O1200     1.0  0.56421  0.09706  0.57907  1.0000
  C   C401      1.0  0.37565  0.83493  0.03222  1.0000
  O   O1201     1.0  0.37761  0.82860  0.05948  1.0000
  O   O1202     1.0  0.36218  0.85353  0.02509  1.0000
  O   O1203     1.0  0.38737  0.82280  0.01213  1.0000
  C   C402      1.0  0.89175  0.97511  0.91890  1.0000
  O   O1204     1.0  0.90533  0.95712  0.90997  1.0000
  O   O1205     1.0  0.90222  0.99568  0.92489  1.0000
  O   O1206     1.0  0.86768  0.97261  0.92156  1.0000
  C   C403      1.0  0.82961  0.06290  0.97960  1.0000
  O   O1207     1.0  0.82481  0.06984  0.00615  1.0000
  O   O1208     1.0  0.83967  0.04192  0.97494  1.0000
  O   O1209     1.0  0.82455  0.07704  0.95772  1.0000
  C   C404      1.0  0.59989  0.94114  0.69847  1.0000
  O   O1210     1.0  0.60743  0.92926  0.67562  1.0000
  O   O1211     1.0  0.61042  0.96149  0.70532  1.0000
  O   O1212     1.0  0.58199  0.93255  0.71464  1.0000
  C   C405      1.0  0.10283  0.34857  0.42616  1.0000
  O   O1213     1.0  0.12292  0.35436  0.44055  1.0000
  O   O1214     1.0  0.08910  0.36530  0.41438  1.0000
  O   O1215     1.0  0.09651  0.32605  0.42345  1.0000
  C   C406      1.0  0.41280  0.71506  0.57858  1.0000
  O   O1216     1.0  0.42326  0.70250  0.55795  1.0000
  O   O1217     1.0  0.40948  0.73811  0.57521  1.0000
  O   O1218     1.0  0.40584  0.70462  0.60268  1.0000
  C   C407      1.0  0.45669  0.65652  0.23533  1.0000
  O   O1219     1.0  0.46535  0.67802  0.23027  1.0000
  O   O1220     1.0  0.43384  0.65114  0.22813  1.0000
  O   O1221     1.0  0.47096  0.64034  0.24733  1.0000
  C   C408      1.0  0.05635  0.28915  0.89757  1.0000
  O   O1222     1.0  0.07789  0.28643  0.91036  1.0000
  O   O1223     1.0  0.04643  0.31047  0.89546  1.0000
  O   O1224     1.0  0.04477  0.27055  0.88681  1.0000
  C   C409      1.0  0.53940  0.76048  0.46210  1.0000
  O   O1225     1.0  0.54465  0.76154  0.48981  1.0000
  O   O1226     1.0  0.55570  0.75182  0.44381  1.0000
  O   O1227     1.0  0.51795  0.76829  0.45264  1.0000
  C   C410      1.0  0.93760  0.40853  0.37220  1.0000
  O   O1228     1.0  0.95148  0.42310  0.35696  1.0000
  O   O1229     1.0  0.92852  0.41549  0.39717  1.0000
  O   O1230     1.0  0.93298  0.38693  0.36259  1.0000
  C   C411      1.0  0.57483  0.34686  0.93766  1.0000
  O   O1231     1.0  0.59459  0.36010  0.93355  1.0000
  O   O1232     1.0  0.55502  0.35019  0.92168  1.0000
  O   O1233     1.0  0.57482  0.33041  0.95790  1.0000
  C   C412      1.0  0.00367  0.43402  0.41842  1.0000
  O   O1234     1.0  0.02073  0.43613  0.43851  1.0000
  O   O1235     1.0  0.99688  0.45276  0.40332  1.0000
  O   O1236     1.0  0.99323  0.41323  0.41363  1.0000
  C   C413      1.0  0.57044  0.21785  0.76546  1.0000
  O   O1237     1.0  0.59420  0.22042  0.76027  1.0000
  O   O1238     1.0  0.56304  0.20532  0.78785  1.0000
  O   O1239     1.0  0.55408  0.22762  0.74810  1.0000
  C   C414      1.0  0.42788  0.15203  0.56008  1.0000
  O   O1240     1.0  0.44280  0.13822  0.54515  1.0000
  O   O1241     1.0  0.40696  0.15935  0.54862  1.0000
  O   O1242     1.0  0.43398  0.15870  0.58636  1.0000
  C   C415      1.0  0.70486  0.70234  0.94827  1.0000
  O   O1243     1.0  0.72278  0.69270  0.93302  1.0000
  O   O1244     1.0  0.68327  0.70654  0.93621  1.0000
  O   O1245     1.0  0.70860  0.70799  0.97549  1.0000
  C   C416      1.0  0.43289  0.40714  0.98689  1.0000
  O   O1246     1.0  0.44298  0.42083  0.00671  1.0000
  O   O1247     1.0  0.43163  0.41449  0.95995  1.0000
  O   O1248     1.0  0.42386  0.38621  0.99406  1.0000
  C   C417      1.0  0.83839  0.17114  0.19959  1.0000
  O   O1249     1.0  0.86032  0.17523  0.21084  1.0000
  O   O1250     1.0  0.82847  0.18671  0.18180  1.0000
  O   O1251     1.0  0.82635  0.15153  0.20620  1.0000
  C   C418      1.0  0.04895  0.87091  0.56603  1.0000
  O   O1252     1.0  0.05213  0.84845  0.57323  1.0000
  O   O1253     1.0  0.02653  0.87995  0.56497  1.0000
  O   O1254     1.0  0.06817  0.88427  0.55967  1.0000
  C   C419      1.0  0.45023  0.85292  0.17203  1.0000
  O   O1255     1.0  0.46693  0.83916  0.18420  1.0000
  O   O1256     1.0  0.45120  0.87614  0.17564  1.0000
  O   O1257     1.0  0.43269  0.84347  0.15602  1.0000
  C   C420      1.0  0.20491  0.34858  0.13334  1.0000
  O   O1258     1.0  0.19311  0.35832  0.11148  1.0000
  O   O1259     1.0  0.22797  0.35455  0.13872  1.0000
  O   O1260     1.0  0.19358  0.33301  0.14994  1.0000
  C   C421      1.0  0.66787  0.91921  0.37021  1.0000
  O   O1261     1.0  0.66443  0.90070  0.35327  1.0000
  O   O1262     1.0  0.67899  0.93835  0.36021  1.0000
  O   O1263     1.0  0.65998  0.91867  0.39708  1.0000
  C   C422      1.0  0.98984  0.90301  0.97910  1.0000
  O   O1264     1.0  0.97664  0.89744  0.95621  1.0000
  O   O1265     1.0  0.01364  0.90730  0.97647  1.0000
  O   O1266     1.0  0.97928  0.90406  0.00466  1.0000
  C   C423      1.0  0.39879  0.49860  0.50777  1.0000
  O   O1267     1.0  0.37955  0.48525  0.51412  1.0000
  O   O1268     1.0  0.39561  0.52102  0.50038  1.0000
  O   O1269     1.0  0.42118  0.48947  0.50856  1.0000
  C   C424      1.0  0.96782  0.60742  0.36663  1.0000
  O   O1270     1.0  0.96369  0.58461  0.36230  1.0000
  O   O1271     1.0  0.99060  0.61525  0.36958  1.0000
  O   O1272     1.0  0.94915  0.62237  0.36830  1.0000
  C   C425      1.0  0.22074  0.16581  0.52443  1.0000
  O   O1273     1.0  0.24502  0.16538  0.52584  1.0000
  O   O1274     1.0  0.20965  0.17882  0.50467  1.0000
  O   O1275     1.0  0.20754  0.15320  0.54275  1.0000
  C   C426      1.0  0.17514  0.33395  0.26492  1.0000
  O   O1276     1.0  0.15187  0.33801  0.27161  1.0000
  O   O1277     1.0  0.19293  0.34394  0.28007  1.0000
  O   O1278     1.0  0.18062  0.31914  0.24384  1.0000
  C   C427      1.0  0.88197  0.87187  0.02493  1.0000
  O   O1279     1.0  0.88686  0.86444  0.99860  1.0000
  O   O1280     1.0  0.89150  0.89199  0.03432  1.0000
  O   O1281     1.0  0.86737  0.85929  0.04177  1.0000
  C   C428      1.0  0.02618  0.21828  0.10657  1.0000
  O   O1282     1.0  0.04386  0.20224  0.10809  1.0000
  O   O1283     1.0  0.01623  0.22359  0.08146  1.0000
  O   O1284     1.0  0.01838  0.22893  0.13017  1.0000
  C   C429      1.0  0.36574  0.58162  0.81305  1.0000
  O   O1285     1.0  0.36758  0.60498  0.81369  1.0000
  O   O1286     1.0  0.36894  0.56919  0.83684  1.0000
  O   O1287     1.0  0.36047  0.57071  0.78867  1.0000
  C   C430      1.0  0.65577  0.82759  0.54689  1.0000
  O   O1288     1.0  0.65095  0.84572  0.52980  1.0000
  O   O1289     1.0  0.64988  0.82865  0.57442  1.0000
  O   O1290     1.0  0.66665  0.80847  0.53649  1.0000
  C   C431      1.0  0.73520  0.54174  0.19661  1.0000
  O   O1291     1.0  0.71219  0.53418  0.19581  1.0000
  O   O1292     1.0  0.74255  0.55857  0.17880  1.0000
  O   O1293     1.0  0.75080  0.53265  0.21542  1.0000
  C   C432      1.0  0.84528  0.96113  0.37290  1.0000
  O   O1294     1.0  0.86870  0.96491  0.36679  1.0000
  O   O1295     1.0  0.83808  0.94009  0.38214  1.0000
  O   O1296     1.0  0.82905  0.97839  0.36977  1.0000
  C   C433      1.0  0.65992  0.42369  0.32041  1.0000
  O   O1297     1.0  0.68016  0.41979  0.33543  1.0000
  O   O1298     1.0  0.66146  0.43202  0.29391  1.0000
  O   O1299     1.0  0.63815  0.41923  0.33186  1.0000
  C   C434      1.0  0.57463  0.73511  0.72386  1.0000
  O   O1300     1.0  0.56540  0.71561  0.73534  1.0000
  O   O1301     1.0  0.57329  0.75542  0.73795  1.0000
  O   O1302     1.0  0.58539  0.73427  0.69841  1.0000
  C   C435      1.0  0.97307  0.01908  0.20139  1.0000
  O   O1303     1.0  0.98801  0.00569  0.21684  1.0000
  O   O1304     1.0  0.95376  0.02916  0.21360  1.0000
  O   O1305     1.0  0.97745  0.02241  0.17374  1.0000
  C   C436      1.0  0.55468  0.62292  0.03678  1.0000
  O   O1306     1.0  0.54744  0.60127  0.02997  1.0000
  O   O1307     1.0  0.54581  0.64137  0.02265  1.0000
  O   O1308     1.0  0.57060  0.62614  0.05789  1.0000
  C   C437      1.0  0.47013  0.22299  0.93077  1.0000
  O   O1309     1.0  0.48336  0.23955  0.94361  1.0000
  O   O1310     1.0  0.44960  0.21530  0.94281  1.0000
  O   O1311     1.0  0.47731  0.21426  0.90577  1.0000
  C   C438      1.0  0.21589  0.79437  0.64772  1.0000
  O   O1312     1.0  0.19751  0.79346  0.66629  1.0000
  O   O1313     1.0  0.21292  0.78609  0.62137  1.0000
  O   O1314     1.0  0.23732  0.80337  0.65557  1.0000
  C   C439      1.0  0.43009  0.86374  0.71943  1.0000
  O   O1315     1.0  0.43776  0.88566  0.72398  1.0000
  O   O1316     1.0  0.41503  0.85916  0.69783  1.0000
  O   O1317     1.0  0.43737  0.84643  0.73659  1.0000
  C   C440      1.0  0.86294  0.78463  0.11318  1.0000
  O   O1318     1.0  0.86213  0.78051  0.08523  1.0000
  O   O1319     1.0  0.86809  0.76719  0.13119  1.0000
  O   O1320     1.0  0.85861  0.80618  0.12313  1.0000
  C   C441      1.0  0.86687  0.02191  0.12790  1.0000
  O   O1321     1.0  0.88911  0.02598  0.13827  1.0000
  O   O1322     1.0  0.86325  0.02149  0.09981  1.0000
  O   O1323     1.0  0.84821  0.01844  0.14563  1.0000
  C   C442      1.0  0.55057  0.82773  0.30728  1.0000
  O   O1324     1.0  0.56628  0.84092  0.29264  1.0000
  O   O1325     1.0  0.52687  0.83303  0.30715  1.0000
  O   O1326     1.0  0.55850  0.80907  0.32176  1.0000
  C   C443      1.0  0.68562  0.18508  0.12938  1.0000
  O   O1327     1.0  0.70710  0.17410  0.12966  1.0000
  O   O1328     1.0  0.68219  0.20357  0.11238  1.0000
  O   O1329     1.0  0.66750  0.17747  0.14592  1.0000
  C   C444      1.0  0.07185  0.16819  0.28558  1.0000
  O   O1330     1.0  0.06409  0.17860  0.26179  1.0000
  O   O1331     1.0  0.05692  0.16615  0.30787  1.0000
  O   O1332     1.0  0.09446  0.15964  0.28698  1.0000
  C   C445      1.0  0.73246  0.23243  0.29885  1.0000
  O   O1333     1.0  0.73878  0.25459  0.30439  1.0000
  O   O1334     1.0  0.71338  0.22285  0.31209  1.0000
  O   O1335     1.0  0.74506  0.21993  0.27986  1.0000
  C   C446      1.0  0.01140  0.04987  0.70504  1.0000
  O   O1336     1.0  0.01378  0.03209  0.68675  1.0000
  O   O1337     1.0  0.00878  0.07176  0.69536  1.0000
  O   O1338     1.0  0.01163  0.04577  0.73301  1.0000
  C   C447      1.0  0.67790  0.63898  0.95760  1.0000
  O   O1339     1.0  0.66048  0.62263  0.95743  1.0000
  O   O1340     1.0  0.68271  0.65118  0.93400  1.0000
  O   O1341     1.0  0.69037  0.64328  0.98143  1.0000
  C   C448      1.0  0.16556  0.38649  0.38490  1.0000
  O   O1342     1.0  0.16945  0.40688  0.39816  1.0000
  O   O1343     1.0  0.17029  0.36630  0.39820  1.0000
  O   O1344     1.0  0.15671  0.38630  0.35844  1.0000
  C   C449      1.0  0.93022  0.63524  0.08903  1.0000
  O   O1345     1.0  0.93738  0.61704  0.10485  1.0000
  O   O1346     1.0  0.92716  0.65629  0.10101  1.0000
  O   O1347     1.0  0.92593  0.63236  0.06129  1.0000
  C   C450      1.0  0.39224  0.46140  0.18662  1.0000
  O   O1348     1.0  0.41324  0.46659  0.17375  1.0000
  O   O1349     1.0  0.37112  0.46609  0.17371  1.0000
  O   O1350     1.0  0.39235  0.45156  0.21240  1.0000
  C   C451      1.0  0.38147  0.78482  0.32413  1.0000
  O   O1351     1.0  0.40563  0.78702  0.32227  1.0000
  O   O1352     1.0  0.36699  0.79964  0.31006  1.0000
  O   O1353     1.0  0.37180  0.76792  0.34024  1.0000
  C   C452      1.0  0.59024  0.00192  0.63327  1.0000
  O   O1354     1.0  0.59902  0.02368  0.63566  1.0000
  O   O1355     1.0  0.58234  0.99054  0.65632  1.0000
  O   O1356     1.0  0.58959  0.99145  0.60786  1.0000
  C   C453      1.0  0.35541  0.52118  0.55353  1.0000
  O   O1357     1.0  0.33762  0.50762  0.54329  1.0000
  O   O1358     1.0  0.36310  0.53970  0.53863  1.0000
  O   O1359     1.0  0.36564  0.51611  0.57857  1.0000
  C   C454      1.0  0.05607  0.91790  0.89577  1.0000
  O   O1360     1.0  0.05416  0.89468  0.89265  1.0000
  O   O1361     1.0  0.07794  0.92813  0.89488  1.0000
  O   O1362     1.0  0.03610  0.93091  0.89950  1.0000
  C   C455      1.0  0.41247  0.46627  0.42748  1.0000
  O   O1363     1.0  0.42432  0.47558  0.40539  1.0000
  O   O1364     1.0  0.40620  0.47977  0.44952  1.0000
  O   O1365     1.0  0.40681  0.44348  0.42749  1.0000
  C   C456      1.0  0.82927  0.88542  0.83156  1.0000
  O   O1366     1.0  0.83622  0.90010  0.81096  1.0000
  O   O1367     1.0  0.83779  0.86348  0.83209  1.0000
  O   O1368     1.0  0.81379  0.89268  0.85163  1.0000
  C   C457      1.0  0.53473  0.18787  0.72395  1.0000
  O   O1369     1.0  0.55440  0.18008  0.71017  1.0000
  O   O1370     1.0  0.52296  0.20685  0.71454  1.0000
  O   O1371     1.0  0.52672  0.17657  0.74701  1.0000
  C   C458      1.0  0.86648  0.39357  0.88204  1.0000
  O   O1372     1.0  0.85707  0.37452  0.89440  1.0000
  O   O1373     1.0  0.85207  0.41157  0.87517  1.0000
  O   O1374     1.0  0.89032  0.39462  0.87656  1.0000
  C   C459      1.0  0.42688  0.29499  0.61115  1.0000
  O   O1375     1.0  0.43236  0.28359  0.63513  1.0000
  O   O1376     1.0  0.42597  0.31841  0.61098  1.0000
  O   O1377     1.0  0.42244  0.28299  0.58731  1.0000
  C   C460      1.0  0.54750  0.13523  0.31750  1.0000
  O   O1378     1.0  0.57100  0.13048  0.31304  1.0000
  O   O1379     1.0  0.53676  0.15271  0.30334  1.0000
  O   O1380     1.0  0.53467  0.12236  0.33591  1.0000
  C   C461      1.0  0.46506  0.98836  0.23391  1.0000
  O   O1381     1.0  0.46957  0.97926  0.25956  1.0000
  O   O1382     1.0  0.47823  0.00646  0.22447  1.0000
  O   O1383     1.0  0.44742  0.97934  0.21770  1.0000
  C   C462      1.0  0.03223  0.93558  0.54426  1.0000
  O   O1384     1.0  0.05250  0.93701  0.55986  1.0000
  O   O1385     1.0  0.03340  0.92827  0.51730  1.0000
  O   O1386     1.0  0.01081  0.94159  0.55557  1.0000
  C   C463      1.0  0.02432  0.73743  0.50587  1.0000
  O   O1387     1.0  0.00633  0.73469  0.48704  1.0000
  O   O1388     1.0  0.03895  0.75610  0.50424  1.0000
  O   O1389     1.0  0.02781  0.72139  0.52617  1.0000
  C   C464      1.0  0.03521  0.56327  0.53425  1.0000
  O   O1390     1.0  0.04359  0.55131  0.55663  1.0000
  O   O1391     1.0  0.03309  0.55271  0.50901  1.0000
  O   O1392     1.0  0.02916  0.58585  0.53704  1.0000
  C   C465      1.0  0.58568  0.02639  0.06398  1.0000
  O   O1393     1.0  0.58055  0.00879  0.04620  1.0000
  O   O1394     1.0  0.57306  0.02883  0.08809  1.0000
  O   O1395     1.0  0.60275  0.04210  0.05710  1.0000
  C   C466      1.0  0.60462  0.96855  0.38627  1.0000
  O   O1396     1.0  0.61831  0.96807  0.40974  1.0000
  O   O1397     1.0  0.58075  0.97275  0.38821  1.0000
  O   O1398     1.0  0.61479  0.96486  0.36085  1.0000
  C   C467      1.0  0.00980  0.32981  0.59426  1.0000
  O   O1399     1.0  0.02098  0.35049  0.59705  1.0000
  O   O1400     1.0  0.98578  0.32899  0.58994  1.0000
  O   O1401     1.0  0.02267  0.30997  0.59549  1.0000
  C   C468      1.0  0.30253  0.44431  0.90864  1.0000
  O   O1402     1.0  0.30953  0.45043  0.93482  1.0000
  O   O1403     1.0  0.29520  0.46072  0.89026  1.0000
  O   O1404     1.0  0.30307  0.42180  0.90077  1.0000
  C   C469      1.0  0.81144  0.66665  0.98723  1.0000
  O   O1405     1.0  0.82744  0.65489  0.97127  1.0000
  O   O1406     1.0  0.79803  0.68373  0.97568  1.0000
  O   O1407     1.0  0.80867  0.66117  0.01466  1.0000
  C   C470      1.0  0.61256  0.45673  0.10764  1.0000
  O   O1408     1.0  0.61061  0.44580  0.08261  1.0000
  O   O1409     1.0  0.61420  0.44425  0.13160  1.0000
  O   O1410     1.0  0.61264  0.48015  0.10872  1.0000
  C   C471      1.0  0.51397  0.34263  0.18158  1.0000
  O   O1411     1.0  0.53312  0.33725  0.16534  1.0000
  O   O1412     1.0  0.49230  0.34662  0.16962  1.0000
  O   O1413     1.0  0.51651  0.34412  0.20978  1.0000
  C   C472      1.0  0.69393  0.93521  0.73756  1.0000
  O   O1414     1.0  0.71719  0.94059  0.74267  1.0000
  O   O1415     1.0  0.67646  0.95094  0.74277  1.0000
  O   O1416     1.0  0.68815  0.91416  0.72708  1.0000
  C   C473      1.0  0.06549  0.07619  0.72135  1.0000
  O   O1417     1.0  0.05717  0.08115  0.74736  1.0000
  O   O1418     1.0  0.07025  0.05400  0.71413  1.0000
  O   O1419     1.0  0.06925  0.09345  0.70264  1.0000
  C   C474      1.0  0.65343  0.74884  0.64711  1.0000
  O   O1420     1.0  0.65183  0.75572  0.62002  1.0000
  O   O1421     1.0  0.63329  0.74337  0.66159  1.0000
  O   O1422     1.0  0.67516  0.74764  0.65980  1.0000
  C   C475      1.0  0.49320  0.41125  0.45313  1.0000
  O   O1423     1.0  0.50906  0.42558  0.46586  1.0000
  O   O1424     1.0  0.47572  0.40085  0.46834  1.0000
  O   O1425     1.0  0.49498  0.40713  0.42524  1.0000
  C   C476      1.0  0.85836  0.72909  0.65817  1.0000
  O   O1426     1.0  0.87265  0.72788  0.63522  1.0000
  O   O1427     1.0  0.84181  0.71238  0.66298  1.0000
  O   O1428     1.0  0.86044  0.74713  0.67613  1.0000
  C   C477      1.0  0.39387  0.23524  0.99853  1.0000
  O   O1429     1.0  0.37889  0.22444  0.01667  1.0000
  O   O1430     1.0  0.41420  0.24541  0.00810  1.0000
  O   O1431     1.0  0.38842  0.23608  0.97087  1.0000
  C   C478      1.0  0.56075  0.54806  0.14304  1.0000
  O   O1432     1.0  0.58096  0.55582  0.15572  1.0000
  O   O1433     1.0  0.55940  0.54747  0.11468  1.0000
  O   O1434     1.0  0.54196  0.54070  0.15871  1.0000
  C   C479      1.0  0.51250  0.91029  0.01765  1.0000
  O   O1435     1.0  0.53209  0.91675  0.03255  1.0000
  O   O1436     1.0  0.49074  0.90924  0.03027  1.0000
  O   O1437     1.0  0.51466  0.90495  0.99010  1.0000
  C   C480      1.0  0.94479  0.36520  0.67841  1.0000
  O   O1438     1.0  0.93621  0.34348  0.67474  1.0000
  O   O1439     1.0  0.93612  0.38284  0.66268  1.0000
  O   O1440     1.0  0.96191  0.36931  0.69797  1.0000
  C   C481      1.0  0.56419  0.74996  0.19378  1.0000
  O   O1441     1.0  0.56883  0.72739  0.18837  1.0000
  O   O1442     1.0  0.58031  0.76284  0.20822  1.0000
  O   O1443     1.0  0.54345  0.75964  0.18472  1.0000
  C   C482      1.0  0.52487  0.23681  0.14995  1.0000
  O   O1444     1.0  0.51604  0.25789  0.14304  1.0000
  O   O1445     1.0  0.53695  0.22417  0.13063  1.0000
  O   O1446     1.0  0.52173  0.22842  0.17622  1.0000
  C   C483      1.0  0.21001  0.58259  0.51387  1.0000
  O   O1447     1.0  0.19250  0.59724  0.50532  1.0000
  O   O1448     1.0  0.20567  0.56738  0.53488  1.0000
  O   O1449     1.0  0.23186  0.58314  0.50142  1.0000
  C   C484      1.0  0.26251  0.21790  0.30853  1.0000
  O   O1450     1.0  0.28633  0.21407  0.30512  1.0000
  O   O1451     1.0  0.24932  0.22645  0.28703  1.0000
  O   O1452     1.0  0.25189  0.21318  0.33344  1.0000
  C   C485      1.0  0.79820  0.92822  0.57158  1.0000
  O   O1453     1.0  0.81914  0.93965  0.56752  1.0000
  O   O1454     1.0  0.77797  0.93544  0.55845  1.0000
  O   O1455     1.0  0.79743  0.90971  0.58898  1.0000
  C   C486      1.0  0.24787  0.86924  0.91075  1.0000
  O   O1456     1.0  0.24711  0.89240  0.90653  1.0000
  O   O1457     1.0  0.23734  0.85991  0.93372  1.0000
  O   O1458     1.0  0.25937  0.85543  0.89213  1.0000
  C   C487      1.0  0.99219  0.46018  0.53696  1.0000
  O   O1459     1.0  0.00746  0.44194  0.53677  1.0000
  O   O1460     1.0  0.00033  0.48151  0.54388  1.0000
  O   O1461     1.0  0.96877  0.45708  0.53027  1.0000
  C   C488      1.0  0.36284  0.60552  0.48269  1.0000
  O   O1462     1.0  0.38037  0.59390  0.46893  1.0000
  O   O1463     1.0  0.35262  0.62439  0.47083  1.0000
  O   O1464     1.0  0.35538  0.59813  0.50821  1.0000
  C   C489      1.0  0.78484  0.17063  0.12997  1.0000
  O   O1465     1.0  0.77454  0.16280  0.15389  1.0000
  O   O1466     1.0  0.80878  0.16812  0.12596  1.0000
  O   O1467     1.0  0.77117  0.18078  0.10995  1.0000
  C   C490      1.0  0.51615  0.66816  0.94801  1.0000
  O   O1468     1.0  0.53735  0.66339  0.93534  1.0000
  O   O1469     1.0  0.49705  0.67498  0.93250  1.0000
  O   O1470     1.0  0.51412  0.66631  0.97624  1.0000
  C   C491      1.0  0.41160  0.02293  0.90864  1.0000
  O   O1471     1.0  0.40854  0.99995  0.90440  1.0000
  O   O1472     1.0  0.40852  0.03795  0.88713  1.0000
  O   O1473     1.0  0.41797  0.03087  0.93431  1.0000
  C   C492      1.0  0.06331  0.51471  0.92705  1.0000
  O   O1474     1.0  0.06642  0.50582  0.90101  1.0000
  O   O1475     1.0  0.07887  0.53073  0.93704  1.0000
  O   O1476     1.0  0.04471  0.50751  0.94313  1.0000
  C   C493      1.0  0.07206  0.90838  0.81642  1.0000
  O   O1477     1.0  0.08896  0.91562  0.79797  1.0000
  O   O1478     1.0  0.06646  0.88562  0.81817  1.0000
  O   O1479     1.0  0.06093  0.92387  0.83331  1.0000
  C   C494      1.0  0.12619  0.95872  0.23910  1.0000
  O   O1480     1.0  0.14849  0.96484  0.24766  1.0000
  O   O1481     1.0  0.11694  0.93797  0.24668  1.0000
  O   O1482     1.0  0.11322  0.97325  0.22275  1.0000
  C   C495      1.0  0.65243  0.46232  0.85839  1.0000
  O   O1483     1.0  0.66198  0.48370  0.86175  1.0000
  O   O1484     1.0  0.65273  0.45209  0.83283  1.0000
  O   O1485     1.0  0.64279  0.45109  0.88063  1.0000
  C   C496      1.0  0.77048  0.31557  0.90730  1.0000
  O   O1486     1.0  0.74752  0.30997  0.90083  1.0000
  O   O1487     1.0  0.78102  0.30637  0.93035  1.0000
  O   O1488     1.0  0.78284  0.33049  0.89083  1.0000
  C   C497      1.0  0.99240  0.99173  0.93647  1.0000
  O   O1489     1.0  0.01144  0.00097  0.95015  1.0000
  O   O1490     1.0  0.97198  0.98678  0.95068  1.0000
  O   O1491     1.0  0.99380  0.98740  0.90860  1.0000
  C   C498      1.0  0.28318  0.97361  0.80607  1.0000
  O   O1492     1.0  0.28722  0.99624  0.81179  1.0000
  O   O1493     1.0  0.27345  0.96737  0.78115  1.0000
  O   O1494     1.0  0.28905  0.95722  0.82517  1.0000
  C   C499      1.0  0.99928  0.54780  0.96914  1.0000
  O   O1495     1.0  0.97969  0.53626  0.97849  1.0000
  O   O1496     1.0  0.99730  0.56267  0.94730  1.0000
  O   O1497     1.0  0.02088  0.54441  0.98154  1.0000
  C   C500      1.0  0.32976  0.15974  0.82481  1.0000
  O   O1498     1.0  0.33332  0.15642  0.85263  1.0000
  O   O1499     1.0  0.31162  0.17351  0.81589  1.0000
  O   O1500     1.0  0.34437  0.14935  0.80592  1.0000
  C   C501      1.0  0.38884  0.69525  0.26579  1.0000
  O   O1501     1.0  0.36887  0.70783  0.26027  1.0000
  O   O1502     1.0  0.39411  0.68918  0.29253  1.0000
  O   O1503     1.0  0.40343  0.68859  0.24455  1.0000
  C   C502      1.0  0.76437  0.32567  0.72083  1.0000
  O   O1504     1.0  0.75932  0.30315  0.71569  1.0000
  O   O1505     1.0  0.78354  0.33138  0.73690  1.0000
  O   O1506     1.0  0.75012  0.34249  0.71014  1.0000
  C   C503      1.0  0.81634  0.65355  0.68089  1.0000
  O   O1507     1.0  0.80005  0.64949  0.70140  1.0000
  O   O1508     1.0  0.80886  0.65977  0.65493  1.0000
  O   O1509     1.0  0.84011  0.65162  0.68641  1.0000
  C   C504      1.0  0.54460  0.03484  0.67105  1.0000
  O   O1510     1.0  0.54472  0.01553  0.68713  1.0000
  O   O1511     1.0  0.56082  0.05185  0.67582  1.0000
  O   O1512     1.0  0.52824  0.03716  0.65021  1.0000
  C   C505      1.0  0.24393  0.68443  0.56011  1.0000
  O   O1513     1.0  0.25465  0.68243  0.58550  1.0000
  O   O1514     1.0  0.22130  0.67642  0.55632  1.0000
  O   O1515     1.0  0.25582  0.69447  0.53852  1.0000
  C   C506      1.0  0.26015  0.73283  0.99805  1.0000
  O   O1516     1.0  0.24302  0.72959  0.01783  1.0000
  O   O1517     1.0  0.26923  0.71447  0.98395  1.0000
  O   O1518     1.0  0.26802  0.75447  0.99216  1.0000
  C   C507      1.0  0.81747  0.11007  0.88523  1.0000
  O   O1519     1.0  0.81018  0.08927  0.87530  1.0000
  O   O1520     1.0  0.81280  0.11605  0.91215  1.0000
  O   O1521     1.0  0.82963  0.12481  0.86831  1.0000
  C   C508      1.0  0.24091  0.95701  0.30726  1.0000
  O   O1522     1.0  0.22649  0.94748  0.28752  1.0000
  O   O1523     1.0  0.26357  0.96347  0.30053  1.0000
  O   O1524     1.0  0.23260  0.96030  0.33366  1.0000
  C   C509      1.0  0.29657  0.90885  0.37911  1.0000
  O   O1525     1.0  0.29766  0.89635  0.35512  1.0000
  O   O1526     1.0  0.28363  0.92868  0.37994  1.0000
  O   O1527     1.0  0.30861  0.90165  0.40220  1.0000
  C   C510      1.0  0.29277  0.55702  0.57477  1.0000
  O   O1528     1.0  0.31362  0.55097  0.58742  1.0000
  O   O1529     1.0  0.29318  0.56927  0.55055  1.0000
  O   O1530     1.0  0.27151  0.55076  0.58628  1.0000
  C   C511      1.0  0.52858  0.75941  0.65684  1.0000
  O   O1531     1.0  0.53970  0.74399  0.63984  1.0000
  O   O1532     1.0  0.51234  0.77442  0.64608  1.0000
  O   O1533     1.0  0.53387  0.75996  0.68457  1.0000
  C   C512      1.0  0.89948  0.85375  0.90558  1.0000
  O   O1534     1.0  0.91732  0.85114  0.88654  1.0000
  O   O1535     1.0  0.89720  0.87392  0.91980  1.0000
  O   O1536     1.0  0.88391  0.83620  0.91041  1.0000
  C   C513      1.0  0.63650  0.44533  0.21185  1.0000
  O   O1537     1.0  0.61243  0.44832  0.21008  1.0000
  O   O1538     1.0  0.65139  0.45845  0.19598  1.0000
  O   O1539     1.0  0.64570  0.42940  0.22970  1.0000
  C   C514      1.0  0.58966  0.91710  0.29804  1.0000
  O   O1540     1.0  0.59707  0.89880  0.31353  1.0000
  O   O1541     1.0  0.58053  0.93606  0.31089  1.0000
  O   O1542     1.0  0.59117  0.91635  0.26970  1.0000
  C   C515      1.0  0.63175  0.09043  0.55112  1.0000
  O   O1543     1.0  0.64110  0.08108  0.57477  1.0000
  O   O1544     1.0  0.62757  0.11348  0.54972  1.0000
  O   O1545     1.0  0.62642  0.07670  0.52896  1.0000
  C   C516      1.0  0.10564  0.87303  0.61186  1.0000
  O   O1546     1.0  0.12745  0.87701  0.60023  1.0000
  O   O1547     1.0  0.09441  0.85255  0.60752  1.0000
  O   O1548     1.0  0.09498  0.88960  0.62761  1.0000
  C   C517      1.0  0.67743  0.76058  0.72513  1.0000
  O   O1549     1.0  0.69861  0.77149  0.72064  1.0000
  O   O1550     1.0  0.65651  0.77129  0.71868  1.0000
  O   O1551     1.0  0.67717  0.73894  0.73602  1.0000
  C   C518      1.0  0.65698  0.23645  0.32843  1.0000
  O   O1552     1.0  0.64600  0.25504  0.31683  1.0000
  O   O1553     1.0  0.67350  0.23945  0.34896  1.0000
  O   O1554     1.0  0.65144  0.21485  0.31951  1.0000
  C   C519      1.0  0.35275  0.15014  0.17078  1.0000
  O   O1555     1.0  0.37149  0.14602  0.18819  1.0000
  O   O1556     1.0  0.33013  0.14477  0.17895  1.0000
  O   O1557     1.0  0.35663  0.15960  0.14519  1.0000
  C   C520      1.0  0.67691  0.22142  0.03028  1.0000
  O   O1558     1.0  0.66327  0.22309  0.05371  1.0000
  O   O1559     1.0  0.69979  0.22936  0.03040  1.0000
  O   O1560     1.0  0.66763  0.21190  0.00669  1.0000
  C   C521      1.0  0.82476  0.51806  0.02108  1.0000
  O   O1561     1.0  0.84648  0.50757  0.02238  1.0000
  O   O1562     1.0  0.82321  0.54140  0.02279  1.0000
  O   O1563     1.0  0.80461  0.50522  0.01779  1.0000
  C   C522      1.0  0.23483  0.81653  0.08056  1.0000
  O   O1564     1.0  0.23900  0.81657  0.05257  1.0000
  O   O1565     1.0  0.24376  0.79932  0.09677  1.0000
  O   O1566     1.0  0.22172  0.83372  0.09234  1.0000
  C   C523      1.0  0.73103  0.50111  0.43909  1.0000
  O   O1567     1.0  0.72644  0.49387  0.41261  1.0000
  O   O1568     1.0  0.74606  0.48882  0.45572  1.0000
  O   O1569     1.0  0.72061  0.52067  0.44893  1.0000
  C   C524      1.0  0.88425  0.46664  0.77241  1.0000
  O   O1570     1.0  0.87511  0.47450  0.74787  1.0000
  O   O1571     1.0  0.87470  0.44767  0.78479  1.0000
  O   O1572     1.0  0.90280  0.47791  0.78472  1.0000
  C   C525      1.0  0.13008  0.21534  0.49893  1.0000
  O   O1573     1.0  0.11095  0.22561  0.51127  1.0000
  O   O1574     1.0  0.15128  0.21398  0.51276  1.0000
  O   O1575     1.0  0.12803  0.20644  0.47276  1.0000
  C   C526      1.0  0.68630  0.61598  0.62148  1.0000
  O   O1576     1.0  0.70412  0.62113  0.60319  1.0000
  O   O1577     1.0  0.66308  0.61916  0.61398  1.0000
  O   O1578     1.0  0.69169  0.60744  0.64718  1.0000
  C   C527      1.0  0.10273  0.79264  0.40528  1.0000
  O   O1579     1.0  0.11039  0.81485  0.40385  1.0000
  O   O1580     1.0  0.11774  0.77516  0.39817  1.0000
  O   O1581     1.0  0.08010  0.78791  0.41396  1.0000
  C   C528      1.0  0.70094  0.96504  0.98520  1.0000
  O   O1582     1.0  0.71010  0.98659  0.98213  1.0000
  O   O1583     1.0  0.67815  0.96049  0.97693  1.0000
  O   O1584     1.0  0.71464  0.94797  0.99628  1.0000
  C   C529      1.0  0.57068  0.39959  0.82275  1.0000
  O   O1585     1.0  0.58885  0.39113  0.83860  1.0000
  O   O1586     1.0  0.56493  0.42233  0.82411  1.0000
  O   O1587     1.0  0.55841  0.38535  0.80532  1.0000
  C   C530      1.0  0.98884  0.01556  0.45170  1.0000
  O   O1588     1.0  0.00538  0.03240  0.45586  1.0000
  O   O1589     1.0  0.98105  0.01078  0.42542  1.0000
  O   O1590     1.0  0.98024  0.00339  0.47379  1.0000
  C   C531      1.0  0.11679  0.60918  0.89180  1.0000
  O   O1591     1.0  0.10220  0.59300  0.90327  1.0000
  O   O1592     1.0  0.13708  0.60265  0.87829  1.0000
  O   O1593     1.0  0.11117  0.63191  0.89399  1.0000
  C   C532      1.0  0.24413  0.36573  0.20356  1.0000
  O   O1594     1.0  0.26637  0.35825  0.19650  1.0000
  O   O1595     1.0  0.23503  0.38504  0.19149  1.0000
  O   O1596     1.0  0.23109  0.35403  0.22290  1.0000
  C   C533      1.0  0.36842  0.21691  0.73741  1.0000
  O   O1597     1.0  0.38539  0.22919  0.75128  1.0000
  O   O1598     1.0  0.34496  0.22277  0.73986  1.0000
  O   O1599     1.0  0.37488  0.19868  0.72124  1.0000
  C   C534      1.0  0.06541  0.65695  0.00083  1.0000
  O   O1600     1.0  0.06128  0.67986  0.99739  1.0000
  O   O1601     1.0  0.07666  0.64476  0.98043  1.0000
  O   O1602     1.0  0.05822  0.64620  0.02464  1.0000
  C   C535      1.0  0.14596  0.82669  0.05516  1.0000
  O   O1603     1.0  0.15479  0.81804  0.03086  1.0000
  O   O1604     1.0  0.15711  0.84467  0.06789  1.0000
  O   O1605     1.0  0.12581  0.81754  0.06656  1.0000
  C   C536      1.0  0.97389  0.11690  0.87104  1.0000
  O   O1606     1.0  0.99754  0.12216  0.87276  1.0000
  O   O1607     1.0  0.96060  0.11489  0.89471  1.0000
  O   O1608     1.0  0.96356  0.11349  0.84565  1.0000
  C   C537      1.0  0.30842  0.71007  0.07343  1.0000
  O   O1609     1.0  0.32718  0.70251  0.08902  1.0000
  O   O1610     1.0  0.31053  0.71161  0.04518  1.0000
  O   O1611     1.0  0.28756  0.71609  0.08608  1.0000
  C   C538      1.0  0.96250  0.16579  0.22549  1.0000
  O   O1612     1.0  0.95209  0.15424  0.20396  1.0000
  O   O1613     1.0  0.98313  0.15775  0.23695  1.0000
  O   O1614     1.0  0.95216  0.18524  0.23572  1.0000
  C   C539      1.0  0.50070  0.43105  0.06516  1.0000
  O   O1615     1.0  0.52035  0.44464  0.06222  1.0000
  O   O1616     1.0  0.49661  0.41996  0.08973  1.0000
  O   O1617     1.0  0.48502  0.42872  0.04363  1.0000
  C   C540      1.0  0.83471  0.70993  0.33019  1.0000
  O   O1618     1.0  0.83794  0.68801  0.33948  1.0000
  O   O1619     1.0  0.82095  0.72486  0.34506  1.0000
  O   O1620     1.0  0.84523  0.71692  0.30601  1.0000
  C   C541      1.0  0.63824  0.19586  0.65689  1.0000
  O   O1621     1.0  0.63086  0.17725  0.67185  1.0000
  O   O1622     1.0  0.62472  0.20379  0.63532  1.0000
  O   O1623     1.0  0.65904  0.20665  0.66365  1.0000
  C   C542      1.0  0.09897  0.44833  0.14846  1.0000
  O   O1624     1.0  0.11748  0.43654  0.13683  1.0000
  O   O1625     1.0  0.08473  0.43792  0.16772  1.0000
  O   O1626     1.0  0.09486  0.47060  0.14104  1.0000
  C   C543      1.0  0.16813  0.64525  0.81685  1.0000
  O   O1627     1.0  0.18759  0.64524  0.79980  1.0000
  O   O1628     1.0  0.16719  0.63067  0.83906  1.0000
  O   O1629     1.0  0.14951  0.65967  0.81150  1.0000
  C   C544      1.0  0.08448  0.78410  0.02857  1.0000
  O   O1630     1.0  0.10267  0.77716  0.01169  1.0000
  O   O1631     1.0  0.07105  0.76819  0.04233  1.0000
  O   O1632     1.0  0.07985  0.80694  0.03187  1.0000
  C   C545      1.0  0.81004  0.09866  0.23782  1.0000
  O   O1633     1.0  0.80916  0.07558  0.24264  1.0000
  O   O1634     1.0  0.79321  0.10882  0.22142  1.0000
  O   O1635     1.0  0.82759  0.11162  0.24965  1.0000
  C   C546      1.0  0.69230  0.64550  0.80406  1.0000
  O   O1636     1.0  0.70592  0.64395  0.82752  1.0000
  O   O1637     1.0  0.69995  0.63570  0.77985  1.0000
  O   O1638     1.0  0.67096  0.65672  0.80485  1.0000
  C   C547      1.0  0.35271  0.49671  0.08078  1.0000
  O   O1639     1.0  0.35616  0.48087  0.10132  1.0000
  O   O1640     1.0  0.35507  0.49048  0.05353  1.0000
  O   O1641     1.0  0.34696  0.51880  0.08749  1.0000
  C   C548      1.0  0.42589  0.83545  0.55325  1.0000
  O   O1642     1.0  0.43982  0.85447  0.54995  1.0000
  O   O1643     1.0  0.40219  0.83639  0.54698  1.0000
  O   O1644     1.0  0.43563  0.81554  0.56297  1.0000
  C   C549      1.0  0.28310  0.94056  0.62862  1.0000
  O   O1645     1.0  0.29610  0.93600  0.65198  1.0000
  O   O1646     1.0  0.26639  0.95759  0.62893  1.0000
  O   O1647     1.0  0.28665  0.92796  0.60503  1.0000
  C   C550      1.0  0.18079  0.41353  0.16416  1.0000
  O   O1648     1.0  0.19053  0.41144  0.13825  1.0000
  O   O1649     1.0  0.19494  0.41884  0.18636  1.0000
  O   O1650     1.0  0.15691  0.41032  0.16787  1.0000
  C   C551      1.0  0.31187  0.47164  0.39440  1.0000
  O   O1651     1.0  0.32734  0.45463  0.38694  1.0000
  O   O1652     1.0  0.29873  0.48261  0.37454  1.0000
  O   O1653     1.0  0.30938  0.47751  0.42175  1.0000
  C   C552      1.0  0.67703  0.34496  0.04959  1.0000
  O   O1654     1.0  0.65909  0.34184  0.03079  1.0000
  O   O1655     1.0  0.67179  0.35035  0.07656  1.0000
  O   O1656     1.0  0.70021  0.34268  0.04144  1.0000
  C   C553      1.0  0.97532  0.66414  0.04076  1.0000
  O   O1657     1.0  0.97343  0.68165  0.02201  1.0000
  O   O1658     1.0  0.97379  0.66859  0.06860  1.0000
  O   O1659     1.0  0.97851  0.64215  0.03167  1.0000
  C   C554      1.0  0.31635  0.37738  0.91854  1.0000
  O   O1660     1.0  0.29538  0.36971  0.90758  1.0000
  O   O1661     1.0  0.33586  0.37991  0.90185  1.0000
  O   O1662     1.0  0.31789  0.38231  0.94626  1.0000
  C   C555      1.0  0.91474  0.73105  0.67353  1.0000
  O   O1663     1.0  0.92510  0.72343  0.64955  1.0000
  O   O1664     1.0  0.91646  0.75364  0.68082  1.0000
  O   O1665     1.0  0.90285  0.71604  0.69036  1.0000
  C   C556      1.0  0.46438  0.54646  0.50603  1.0000
  O   O1666     1.0  0.46980  0.52527  0.49569  1.0000
  O   O1667     1.0  0.48197  0.56007  0.51665  1.0000
  O   O1668     1.0  0.44139  0.55410  0.50561  1.0000
  C   C557      1.0  0.15676  0.26755  0.64815  1.0000
  O   O1669     1.0  0.15940  0.24570  0.65795  1.0000
  O   O1670     1.0  0.17637  0.28049  0.64216  1.0000
  O   O1671     1.0  0.13450  0.27644  0.64432  1.0000
  C   C558      1.0  0.50975  0.16803  0.08891  1.0000
  O   O1672     1.0  0.52873  0.16972  0.07126  1.0000
  O   O1673     1.0  0.50057  0.18730  0.10102  1.0000
  O   O1674     1.0  0.50009  0.14705  0.09464  1.0000
  C   C559      1.0  0.80250  0.48435  0.51313  1.0000
  O   O1675     1.0  0.79393  0.48616  0.48663  1.0000
  O   O1676     1.0  0.82325  0.47283  0.51804  1.0000
  O   O1677     1.0  0.79029  0.49404  0.53471  1.0000
  C   C560      1.0  0.74195  0.68892  0.40978  1.0000
  O   O1678     1.0  0.76366  0.67842  0.41118  1.0000
  O   O1679     1.0  0.72388  0.67903  0.39502  1.0000
  O   O1680     1.0  0.73838  0.70941  0.42291  1.0000
  C   C561      1.0  0.88923  0.73938  0.86520  1.0000
  O   O1681     1.0  0.89976  0.75006  0.84310  1.0000
  O   O1682     1.0  0.87852  0.75210  0.88552  1.0000
  O   O1683     1.0  0.88929  0.71599  0.86690  1.0000
  C   C562      1.0  0.67194  0.14280  0.48641  1.0000
  O   O1684     1.0  0.66164  0.12410  0.47423  1.0000
  O   O1685     1.0  0.67160  0.14514  0.51468  1.0000
  O   O1686     1.0  0.68238  0.15928  0.47031  1.0000
  C   C563      1.0  0.45232  0.05602  0.60837  1.0000
  O   O1687     1.0  0.43572  0.04479  0.62404  1.0000
  O   O1688     1.0  0.44524  0.07040  0.58752  1.0000
  O   O1689     1.0  0.47601  0.05297  0.61365  1.0000
  C   C564      1.0  0.24393  0.04583  0.72321  1.0000
  O   O1690     1.0  0.23568  0.02385  0.72124  1.0000
  O   O1691     1.0  0.26652  0.05096  0.71472  1.0000
  O   O1692     1.0  0.22967  0.06264  0.73389  1.0000
  C   C565      1.0  0.85478  0.71435  0.99197  1.0000
  O   O1693     1.0  0.85116  0.69604  0.00918  1.0000
  O   O1694     1.0  0.85517  0.71127  0.96381  1.0000
  O   O1695     1.0  0.85776  0.73579  0.00291  1.0000
  C   C566      1.0  0.17391  0.77001  0.44598  1.0000
  O   O1696     1.0  0.16015  0.78090  0.46532  1.0000
  O   O1697     1.0  0.16582  0.75049  0.43342  1.0000
  O   O1698     1.0  0.19567  0.77875  0.43900  1.0000
  C   C567      1.0  0.26386  0.14789  0.65495  1.0000
  O   O1699     1.0  0.24756  0.15880  0.67138  1.0000
  O   O1700     1.0  0.28630  0.15664  0.65222  1.0000
  O   O1701     1.0  0.25768  0.12829  0.64115  1.0000
  C   C568      1.0  0.38948  0.69267  0.95187  1.0000
  O   O1702     1.0  0.41050  0.69091  0.96600  1.0000
  O   O1703     1.0  0.37747  0.71304  0.95142  1.0000
  O   O1704     1.0  0.38035  0.67400  0.93842  1.0000
  C   C569      1.0  0.03242  0.67015  0.69332  1.0000
  O   O1705     1.0  0.03228  0.69336  0.68938  1.0000
  O   O1706     1.0  0.04816  0.65676  0.67898  1.0000
  O   O1707     1.0  0.01677  0.66033  0.71151  1.0000
  C   C570      1.0  0.48987  0.88782  0.89819  1.0000
  O   O1708     1.0  0.48969  0.89084  0.92636  1.0000
  O   O1709     1.0  0.49351  0.90614  0.88100  1.0000
  O   O1710     1.0  0.48641  0.86646  0.88721  1.0000
  C   C571      1.0  0.95794  0.93963  0.69594  1.0000
  O   O1711     1.0  0.96546  0.92163  0.68002  1.0000
  O   O1712     1.0  0.96118  0.96161  0.68685  1.0000
  O   O1713     1.0  0.94702  0.93564  0.72086  1.0000
  C   C572      1.0  0.99357  0.57891  0.27311  1.0000
  O   O1714     1.0  0.00139  0.59848  0.26044  1.0000
  O   O1715     1.0  0.97004  0.57306  0.27187  1.0000
  O   O1716     1.0  0.00924  0.56530  0.28725  1.0000
  C   C573      1.0  0.37922  0.02846  0.77342  1.0000
  O   O1717     1.0  0.40188  0.02142  0.76763  1.0000
  O   O1718     1.0  0.36647  0.04026  0.75391  1.0000
  O   O1719     1.0  0.36934  0.02377  0.79875  1.0000
  C   C574      1.0  0.61675  0.63378  0.44930  1.0000
  O   O1720     1.0  0.63972  0.63154  0.45823  1.0000
  O   O1721     1.0  0.60121  0.64736  0.46367  1.0000
  O   O1722     1.0  0.60939  0.62262  0.42585  1.0000
  C   C575      1.0  0.84611  0.60563  0.38119  1.0000
  O   O1723     1.0  0.85177  0.61115  0.40799  1.0000
  O   O1724     1.0  0.83773  0.58422  0.37503  1.0000
  O   O1725     1.0  0.84902  0.62144  0.36050  1.0000
  C   C576      1.0  0.60526  0.38261  0.27121  1.0000
  O   O1726     1.0  0.60502  0.37021  0.29531  1.0000
  O   O1727     1.0  0.61714  0.40304  0.27008  1.0000
  O   O1728     1.0  0.59355  0.37463  0.24826  1.0000
  C   C577      1.0  0.52324  0.73914  0.30957  1.0000
  O   O1729     1.0  0.50723  0.74746  0.32844  1.0000
  O   O1730     1.0  0.54520  0.74901  0.30722  1.0000
  O   O1731     1.0  0.51737  0.72081  0.29325  1.0000
  C   C578      1.0  0.54056  0.22125  0.57621  1.0000
  O   O1732     1.0  0.56147  0.21110  0.58389  1.0000
  O   O1733     1.0  0.54061  0.23842  0.55687  1.0000
  O   O1734     1.0  0.51964  0.21440  0.58808  1.0000
  C   C579      1.0  0.98378  0.73184  0.30548  1.0000
  O   O1735     1.0  0.98781  0.75474  0.30169  1.0000
  O   O1736     1.0  0.96344  0.72204  0.29542  1.0000
  O   O1737     1.0  0.00016  0.71872  0.31919  1.0000
  C   C580      1.0  0.93841  0.82765  0.46239  1.0000
  O   O1738     1.0  0.95635  0.84344  0.46119  1.0000
  O   O1739     1.0  0.91542  0.83427  0.45773  1.0000
  O   O1740     1.0  0.94347  0.80523  0.46814  1.0000
  C   C581      1.0  0.33713  0.04703  0.55273  1.0000
  O   O1741     1.0  0.35972  0.04371  0.56246  1.0000
  O   O1742     1.0  0.33324  0.04955  0.52485  1.0000
  O   O1743     1.0  0.31841  0.04764  0.57085  1.0000
  C   C582      1.0  0.89694  0.31972  0.19656  1.0000
  O   O1744     1.0  0.90751  0.33953  0.20535  1.0000
  O   O1745     1.0  0.87419  0.32016  0.18652  1.0000
  O   O1746     1.0  0.90910  0.29945  0.19784  1.0000
  C   C583      1.0  0.79998  0.26169  0.40351  1.0000
  O   O1747     1.0  0.82320  0.25619  0.39830  1.0000
  O   O1748     1.0  0.79142  0.28278  0.39620  1.0000
  O   O1749     1.0  0.78538  0.24618  0.41627  1.0000
  C   C584      1.0  0.41606  0.01988  0.37850  1.0000
  O   O1750     1.0  0.43824  0.02927  0.37611  1.0000
  O   O1751     1.0  0.39683  0.03366  0.38334  1.0000
  O   O1752     1.0  0.41313  0.99668  0.37633  1.0000
  C   C585      1.0  0.65650  0.86973  0.82312  1.0000
  O   O1753     1.0  0.63526  0.86195  0.81299  1.0000
  O   O1754     1.0  0.67243  0.85466  0.83439  1.0000
  O   O1755     1.0  0.66182  0.89257  0.82194  1.0000
  C   C586      1.0  0.44251  0.73957  0.31505  1.0000
  O   O1756     1.0  0.42169  0.73963  0.30037  1.0000
  O   O1757     1.0  0.45532  0.71977  0.31764  1.0000
  O   O1758     1.0  0.45053  0.75933  0.32713  1.0000
  C   C587      1.0  0.82151  0.43527  0.97824  1.0000
  O   O1759     1.0  0.81529  0.45249  0.99607  1.0000
  O   O1760     1.0  0.83924  0.42032  0.98528  1.0000
  O   O1761     1.0  0.80993  0.43292  0.95342  1.0000
  C   C588      1.0  0.98636  0.29968  0.72283  1.0000
  O   O1762     1.0  0.00932  0.29667  0.73147  1.0000
  O   O1763     1.0  0.97914  0.32054  0.71301  1.0000
  O   O1764     1.0  0.97069  0.28178  0.72376  1.0000
  C   C589      1.0  0.08237  0.00225  0.17609  1.0000
  O   O1765     1.0  0.09605  0.01908  0.18772  1.0000
  O   O1766     1.0  0.06034  0.99757  0.18671  1.0000
  O   O1767     1.0  0.09073  0.99008  0.15386  1.0000
  C   C590      1.0  0.99180  0.91800  0.87580  1.0000
  O   O1768     1.0  0.99589  0.89491  0.87508  1.0000
  O   O1769     1.0  0.99638  0.93113  0.85288  1.0000
  O   O1770     1.0  0.98309  0.92796  0.89942  1.0000
  C   C591      1.0  0.37719  0.96873  0.26660  1.0000
  O   O1771     1.0  0.35431  0.96078  0.26626  1.0000
  O   O1772     1.0  0.38448  0.98319  0.28727  1.0000
  O   O1773     1.0  0.39283  0.96208  0.24639  1.0000
  C   C592      1.0  0.18245  0.77070  0.54442  1.0000
  O   O1774     1.0  0.19088  0.75074  0.55558  1.0000
  O   O1775     1.0  0.19020  0.79131  0.55445  1.0000
  O   O1776     1.0  0.16624  0.77004  0.52326  1.0000
  C   C593      1.0  0.31549  0.71749  0.94006  1.0000
  O   O1777     1.0  0.32605  0.70140  0.95663  1.0000
  O   O1778     1.0  0.31583  0.74007  0.94764  1.0000
  O   O1779     1.0  0.30443  0.71097  0.91603  1.0000
  C   C594      1.0  0.24053  0.87813  0.38023  1.0000
  O   O1780     1.0  0.24898  0.86042  0.36446  1.0000
  O   O1781     1.0  0.21751  0.88527  0.37720  1.0000
  O   O1782     1.0  0.25509  0.88868  0.39905  1.0000
  C   C595      1.0  0.75150  0.75341  0.67770  1.0000
  O   O1783     1.0  0.76981  0.74023  0.66801  1.0000
  O   O1784     1.0  0.75446  0.77654  0.68077  1.0000
  O   O1785     1.0  0.73021  0.74348  0.68432  1.0000
  C   C596      1.0  0.75122  0.24887  0.03938  1.0000
  O   O1786     1.0  0.73786  0.26079  0.05821  1.0000
  O   O1787     1.0  0.75090  0.25498  0.01195  1.0000
  O   O1788     1.0  0.76512  0.23101  0.04802  1.0000
  C   C597      1.0  0.42157  0.39552  0.64288  1.0000
  O   O1789     1.0  0.40841  0.37581  0.64256  1.0000
  O   O1790     1.0  0.41823  0.41130  0.66351  1.0000
  O   O1791     1.0  0.43791  0.39954  0.62241  1.0000
  C   C598      1.0  0.54034  0.66446  0.49313  1.0000
  O   O1792     1.0  0.55576  0.68175  0.48658  1.0000
  O   O1793     1.0  0.53944  0.65617  0.51969  1.0000
  O   O1794     1.0  0.52580  0.65546  0.47314  1.0000
  C   C599      1.0  0.88287  0.89444  0.74126  1.0000
  O   O1795     1.0  0.88036  0.91283  0.75862  1.0000
  O   O1796     1.0  0.86330  0.88497  0.72890  1.0000
  O   O1797     1.0  0.90497  0.88565  0.73606  1.0000
  C   C600      1.0  0.44029  0.79336  0.20514  1.0000
  O   O1798     1.0  0.41714  0.79626  0.19715  1.0000
  O   O1799     1.0  0.44645  0.79557  0.23249  1.0000
  O   O1800     1.0  0.45727  0.78825  0.18577  1.0000
  C   C601      1.0  0.29926  0.27537  0.38252  1.0000
  O   O1801     1.0  0.29029  0.27359  0.40884  1.0000
  O   O1802     1.0  0.28554  0.28427  0.36169  1.0000
  O   O1803     1.0  0.32187  0.26806  0.37697  1.0000
  C   C602      1.0  0.37080  0.25483  0.88570  1.0000
  O   O1804     1.0  0.35490  0.26664  0.86966  1.0000
  O   O1805     1.0  0.37888  0.26415  0.91000  1.0000
  O   O1806     1.0  0.37844  0.23362  0.87758  1.0000
  C   C603      1.0  0.96130  0.18514  0.53692  1.0000
  O   O1807     1.0  0.97499  0.18173  0.51380  1.0000
  O   O1808     1.0  0.94858  0.20498  0.53980  1.0000
  O   O1809     1.0  0.96049  0.16881  0.55727  1.0000
  C   C604      1.0  0.82409  0.39974  0.54852  1.0000
  O   O1810     1.0  0.82146  0.39844  0.52032  1.0000
  O   O1811     1.0  0.80447  0.39991  0.56531  1.0000
  O   O1812     1.0  0.84632  0.40111  0.55991  1.0000
  C   C605      1.0  0.37801  0.35690  0.94295  1.0000
  O   O1813     1.0  0.38056  0.36338  0.97009  1.0000
  O   O1814     1.0  0.39408  0.36410  0.92349  1.0000
  O   O1815     1.0  0.35939  0.34322  0.93527  1.0000
  C   C606      1.0  0.22811  0.25522  0.55313  1.0000
  O   O1816     1.0  0.23484  0.23627  0.56787  1.0000
  O   O1817     1.0  0.21432  0.27165  0.56540  1.0000
  O   O1818     1.0  0.23496  0.25762  0.52603  1.0000
  C   C607      1.0  0.92995  0.78755  0.29069  1.0000
  O   O1819     1.0  0.91258  0.77422  0.30227  1.0000
  O   O1820     1.0  0.93143  0.81029  0.29732  1.0000
  O   O1821     1.0  0.94586  0.77813  0.27249  1.0000
  C   C608      1.0  0.89613  0.39096  0.07205  1.0000
  O   O1822     1.0  0.90332  0.36857  0.07244  1.0000
  O   O1823     1.0  0.91250  0.40807  0.06877  1.0000
  O   O1824     1.0  0.87254  0.39621  0.07472  1.0000
  C   C609      1.0  0.73614  0.50739  0.09884  1.0000
  O   O1825     1.0  0.76029  0.50579  0.10156  1.0000
  O   O1826     1.0  0.72488  0.52766  0.10436  1.0000
  O   O1827     1.0  0.72326  0.48878  0.09036  1.0000
  C   C610      1.0  0.68496  0.24173  0.54872  1.0000
  O   O1828     1.0  0.69138  0.23618  0.57528  1.0000
  O   O1829     1.0  0.67028  0.22753  0.53401  1.0000
  O   O1830     1.0  0.69305  0.26158  0.53695  1.0000
  C   C611      1.0  0.10360  0.85349  0.48250  1.0000
  O   O1831     1.0  0.08455  0.85443  0.50013  1.0000
  O   O1832     1.0  0.11789  0.83453  0.48216  1.0000
  O   O1833     1.0  0.10821  0.87141  0.46500  1.0000
  C   C612      1.0  0.62551  0.56332  0.25554  1.0000
  O   O1834     1.0  0.60140  0.56605  0.25376  1.0000
  O   O1835     1.0  0.63975  0.56989  0.23393  1.0000
  O   O1836     1.0  0.63538  0.55406  0.27895  1.0000
  C   C613      1.0  0.99263  0.26314  0.62258  1.0000
  O   O1837     1.0  0.98601  0.27101  0.59696  1.0000
  O   O1838     1.0  0.00613  0.27661  0.63965  1.0000
  O   O1839     1.0  0.98592  0.24172  0.63102  1.0000
  C   C614      1.0  0.19104  0.31756  0.07619  1.0000
  O   O1840     1.0  0.21451  0.32323  0.07905  1.0000
  O   O1841     1.0  0.17764  0.32761  0.05585  1.0000
  O   O1842     1.0  0.18103  0.30168  0.09350  1.0000
  C   C615      1.0  0.28746  0.63780  0.21849  1.0000
  O   O1843     1.0  0.29273  0.63927  0.24617  1.0000
  O   O1844     1.0  0.30492  0.64108  0.19912  1.0000
  O   O1845     1.0  0.26475  0.63299  0.21018  1.0000
  C   C616      1.0  0.52352  0.70188  0.89389  1.0000
  O   O1846     1.0  0.52980  0.71567  0.91565  1.0000
  O   O1847     1.0  0.50085  0.70257  0.88363  1.0000
  O   O1848     1.0  0.53984  0.68722  0.88257  1.0000
  C   C617      1.0  0.48845  0.26429  0.46199  1.0000
  O   O1849     1.0  0.48891  0.25705  0.43498  1.0000
  O   O1850     1.0  0.49789  0.28512  0.46894  1.0000
  O   O1851     1.0  0.47877  0.25062  0.48210  1.0000
  C   C618      1.0  0.13404  0.38759  0.22465  1.0000
  O   O1852     1.0  0.15829  0.38603  0.22350  1.0000
  O   O1853     1.0  0.12310  0.40814  0.21986  1.0000
  O   O1854     1.0  0.12074  0.36861  0.23066  1.0000
  C   C619      1.0  0.80245  0.84571  0.97057  1.0000
  O   O1855     1.0  0.78779  0.83468  0.98888  1.0000
  O   O1856     1.0  0.79377  0.85314  0.94561  1.0000
  O   O1857     1.0  0.82574  0.84950  0.97734  1.0000
  C   C620      1.0  0.95978  0.18698  0.04790  1.0000
  O   O1858     1.0  0.98051  0.19868  0.04348  1.0000
  O   O1859     1.0  0.95801  0.16447  0.04028  1.0000
  O   O1860     1.0  0.94083  0.19779  0.05994  1.0000
  C   C621      1.0  0.90190  0.36128  0.72982  1.0000
  O   O1861     1.0  0.92120  0.34849  0.73746  1.0000
  O   O1862     1.0  0.88563  0.36789  0.74935  1.0000
  O   O1863     1.0  0.89888  0.36747  0.70264  1.0000
  C   C622      1.0  0.06869  0.95969  0.73247  1.0000
  O   O1864     1.0  0.06277  0.96228  0.75985  1.0000
  O   O1865     1.0  0.05130  0.95606  0.71310  1.0000
  O   O1866     1.0  0.09202  0.96052  0.72449  1.0000
  C   C623      1.0  0.30304  0.08395  0.78308  1.0000
  O   O1867     1.0  0.30307  0.06447  0.76730  1.0000
  O   O1868     1.0  0.31473  0.10308  0.77396  1.0000
  O   O1869     1.0  0.29154  0.08425  0.80810  1.0000
  C   C624      1.0  0.41337  0.13154  0.78080  1.0000
  O   O1870     1.0  0.43527  0.12390  0.77263  1.0000
  O   O1871     1.0  0.39896  0.14260  0.76226  1.0000
  O   O1872     1.0  0.40588  0.12812  0.80751  1.0000
  C   C625      1.0  0.07915  0.20313  0.67000  1.0000
  O   O1873     1.0  0.06698  0.20078  0.64557  1.0000
  O   O1874     1.0  0.07380  0.18934  0.69210  1.0000
  O   O1875     1.0  0.09683  0.21912  0.67224  1.0000
  C   C626      1.0  0.61344  0.61542  0.19690  1.0000
  O   O1876     1.0  0.62946  0.62789  0.18179  1.0000
  O   O1877     1.0  0.60712  0.59391  0.18837  1.0000
  O   O1878     1.0  0.60368  0.62448  0.22049  1.0000
  C   C627      1.0  0.30387  0.88638  0.15012  1.0000
  O   O1879     1.0  0.30931  0.86445  0.15783  1.0000
  O   O1880     1.0  0.28259  0.89100  0.13755  1.0000
  O   O1881     1.0  0.31962  0.90374  0.15522  1.0000
  C   C628      1.0  0.19468  0.59382  0.60269  1.0000
  O   O1882     1.0  0.21659  0.60396  0.60358  1.0000
  O   O1883     1.0  0.19183  0.57189  0.61215  1.0000
  O   O1884     1.0  0.17566  0.60552  0.59208  1.0000
  C   C629      1.0  0.04538  0.50513  0.27942  1.0000
  O   O1885     1.0  0.06614  0.49372  0.27415  1.0000
  O   O1886     1.0  0.03368  0.50172  0.30398  1.0000
  O   O1887     1.0  0.03633  0.51996  0.26013  1.0000
  C   C630      1.0  0.63749  0.26859  0.81576  1.0000
  O   O1888     1.0  0.62383  0.24938  0.81260  1.0000
  O   O1889     1.0  0.63320  0.28329  0.83731  1.0000
  O   O1890     1.0  0.65554  0.27301  0.79750  1.0000
  C   C631      1.0  0.02113  0.47610  0.15072  1.0000
  O   O1891     1.0  0.99823  0.48384  0.14879  1.0000
  O   O1892     1.0  0.02601  0.45652  0.16525  1.0000
  O   O1893     1.0  0.03910  0.48780  0.13789  1.0000
  C   C632      1.0  0.91227  0.96102  0.41430  1.0000
  O   O1894     1.0  0.91099  0.94036  0.40097  1.0000
  O   O1895     1.0  0.91542  0.98070  0.39934  1.0000
  O   O1896     1.0  0.91044  0.96199  0.44261  1.0000
  C   C633      1.0  0.29517  0.18190  0.08893  1.0000
  O   O1897     1.0  0.31402  0.17344  0.10366  1.0000
  O   O1898     1.0  0.27665  0.19215  0.10252  1.0000
  O   O1899     1.0  0.29483  0.18009  0.06060  1.0000
  C   C634      1.0  0.17933  0.62410  0.32668  1.0000
  O   O1900     1.0  0.19006  0.61275  0.30522  1.0000
  O   O1901     1.0  0.17019  0.61207  0.34860  1.0000
  O   O1902     1.0  0.17773  0.64748  0.32622  1.0000
  C   C635      1.0  0.92976  0.25983  0.06026  1.0000
  O   O1903     1.0  0.92788  0.24284  0.07971  1.0000
  O   O1904     1.0  0.94366  0.25666  0.03727  1.0000
  O   O1905     1.0  0.91771  0.27997  0.06379  1.0000
  C   C636      1.0  0.76443  0.95352  0.88312  1.0000
  O   O1906     1.0  0.76197  0.93032  0.88040  1.0000
  O   O1907     1.0  0.76597  0.96705  0.85998  1.0000
  O   O1908     1.0  0.76512  0.96323  0.90896  1.0000
  C   C637      1.0  0.10938  0.65859  0.24775  1.0000
  O   O1909     1.0  0.10881  0.63523  0.24558  1.0000
  O   O1910     1.0  0.10963  0.66872  0.27337  1.0000
  O   O1911     1.0  0.10971  0.67182  0.22431  1.0000
  C   C638      1.0  0.24164  0.28410  0.14607  1.0000
  O   O1912     1.0  0.23966  0.30345  0.16193  1.0000
  O   O1913     1.0  0.25408  0.26565  0.15584  1.0000
  O   O1914     1.0  0.23138  0.28329  0.12033  1.0000
  C   C639      1.0  0.54027  0.42640  0.53137  1.0000
  O   O1915     1.0  0.52511  0.40809  0.53205  1.0000
  O   O1916     1.0  0.55771  0.42749  0.51162  1.0000
  O   O1917     1.0  0.53814  0.44351  0.55063  1.0000
  C   C640      1.0  0.99979  0.10292  0.53821  1.0000
  O   O1918     1.0  0.98426  0.08873  0.52473  1.0000
  O   O1919     1.0  0.01993  0.09414  0.55006  1.0000
  O   O1920     1.0  0.99530  0.12592  0.53961  1.0000
  C   C641      1.0  0.32281  0.81448  0.39120  1.0000
  O   O1921     1.0  0.32831  0.79398  0.37903  1.0000
  O   O1922     1.0  0.32886  0.83456  0.37837  1.0000
  O   O1923     1.0  0.31111  0.81491  0.41610  1.0000
  C   C642      1.0  0.12103  0.72586  0.56109  1.0000
  O   O1924     1.0  0.10163  0.73160  0.57674  1.0000
  O   O1925     1.0  0.14238  0.72165  0.57369  1.0000
  O   O1926     1.0  0.11905  0.72425  0.53284  1.0000
  C   C643      1.0  0.24194  0.51666  0.65340  1.0000
  O   O1927     1.0  0.26363  0.52654  0.64874  1.0000
  O   O1928     1.0  0.23857  0.49393  0.64771  1.0000
  O   O1929     1.0  0.22356  0.52956  0.66347  1.0000
  C   C644      1.0  0.63055  0.07439  0.19855  1.0000
  O   O1930     1.0  0.63731  0.06644  0.22409  1.0000
  O   O1931     1.0  0.61032  0.06621  0.18631  1.0000
  O   O1932     1.0  0.64401  0.09056  0.18529  1.0000
  C   C645      1.0  0.94250  0.70993  0.41427  1.0000
  O   O1933     1.0  0.92811  0.72637  0.42558  1.0000
  O   O1934     1.0  0.93570  0.69879  0.39057  1.0000
  O   O1935     1.0  0.96371  0.70469  0.42663  1.0000
  C   C646      1.0  0.73335  0.41247  0.45925  1.0000
  O   O1936     1.0  0.73346  0.40339  0.48544  1.0000
  O   O1937     1.0  0.74920  0.40476  0.43983  1.0000
  O   O1938     1.0  0.71730  0.42915  0.45242  1.0000
  C   C647      1.0  0.17355  0.55270  0.80954  1.0000
  O   O1939     1.0  0.19129  0.56378  0.82358  1.0000
  O   O1940     1.0  0.15052  0.55447  0.81844  1.0000
  O   O1941     1.0  0.17879  0.54004  0.78642  1.0000
  C   C648      1.0  0.10793  0.27471  0.47300  1.0000
  O   O1942     1.0  0.09897  0.29534  0.48151  1.0000
  O   O1943     1.0  0.13064  0.26861  0.47994  1.0000
  O   O1944     1.0  0.09417  0.26021  0.45752  1.0000
  C   C649      1.0  0.95367  0.09390  0.18962  1.0000
  O   O1945     1.0  0.97436  0.10621  0.18944  1.0000
  O   O1946     1.0  0.93662  0.09841  0.20913  1.0000
  O   O1947     1.0  0.95012  0.07694  0.17047  1.0000
  C   C650      1.0  0.48654  0.62822  0.96601  1.0000
  O   O1948     1.0  0.46442  0.63577  0.95853  1.0000
  O   O1949     1.0  0.49197  0.62513  0.99345  1.0000
  O   O1950     1.0  0.50329  0.62396  0.94608  1.0000
  C   C651      1.0  0.00455  0.44831  0.85653  1.0000
  O   O1951     1.0  0.01554  0.45758  0.87924  1.0000
  O   O1952     1.0  0.00117  0.46130  0.83321  1.0000
  O   O1953     1.0  0.99714  0.42600  0.85703  1.0000
  C   C652      1.0  0.74408  0.07995  0.79184  1.0000
  O   O1954     1.0  0.75894  0.06835  0.80940  1.0000
  O   O1955     1.0  0.74422  0.07515  0.76403  1.0000
  O   O1956     1.0  0.72892  0.09618  0.80214  1.0000
  C   C653      1.0  0.82434  0.47803  0.70107  1.0000
  O   O1957     1.0  0.83216  0.49957  0.69464  1.0000
  O   O1958     1.0  0.80163  0.47485  0.71048  1.0000
  O   O1959     1.0  0.83917  0.45964  0.69787  1.0000
  C   C654      1.0  0.60565  0.11226  0.76306  1.0000
  O   O1960     1.0  0.58911  0.11189  0.74224  1.0000
  O   O1961     1.0  0.62736  0.12219  0.75865  1.0000
  O   O1962     1.0  0.60058  0.10249  0.78819  1.0000
  C   C655      1.0  0.92751  0.51876  0.18680  1.0000
  O   O1963     1.0  0.93477  0.53719  0.17144  1.0000
  O   O1964     1.0  0.90424  0.51690  0.19475  1.0000
  O   O1965     1.0  0.94351  0.50222  0.19423  1.0000
  C   C656      1.0  0.89881  0.71037  0.13497  1.0000
  O   O1966     1.0  0.91500  0.69334  0.13979  1.0000
  O   O1967     1.0  0.90554  0.72977  0.12111  1.0000
  O   O1968     1.0  0.87583  0.70792  0.14380  1.0000
  C   C657      1.0  0.64421  0.10116  0.29273  1.0000
  O   O1969     1.0  0.65712  0.11093  0.27176  1.0000
  O   O1970     1.0  0.65532  0.09422  0.31656  1.0000
  O   O1971     1.0  0.62023  0.09812  0.28974  1.0000
  C   C658      1.0  0.20291  0.89131  0.29452  1.0000
  O   O1972     1.0  0.21727  0.89383  0.27179  1.0000
  O   O1973     1.0  0.18924  0.90925  0.30341  1.0000
  O   O1974     1.0  0.20229  0.87088  0.30841  1.0000
  C   C659      1.0  0.10441  0.88573  0.09629  1.0000
  O   O1975     1.0  0.12151  0.90150  0.08977  1.0000
  O   O1976     1.0  0.08411  0.89251  0.10960  1.0000
  O   O1977     1.0  0.10772  0.86315  0.08977  1.0000
  C   C660      1.0  0.89936  0.87164  0.10209  1.0000
  O   O1978     1.0  0.90347  0.84893  0.09695  1.0000
  O   O1979     1.0  0.91474  0.88784  0.09216  1.0000
  O   O1980     1.0  0.88001  0.87813  0.11739  1.0000
  C   C661      1.0  0.04779  0.47041  0.51553  1.0000
  O   O1981     1.0  0.04461  0.49360  0.51720  1.0000
  O   O1982     1.0  0.05498  0.45837  0.53840  1.0000
  O   O1983     1.0  0.04356  0.45923  0.49105  1.0000
  C   C662      1.0  0.68184  0.03717  0.13157  1.0000
  O   O1984     1.0  0.65905  0.02902  0.13239  1.0000
  O   O1985     1.0  0.70003  0.02306  0.12363  1.0000
  O   O1986     1.0  0.68643  0.05943  0.13863  1.0000
  C   C663      1.0  0.43290  0.37335  0.26011  1.0000
  O   O1987     1.0  0.41076  0.37769  0.24959  1.0000
  O   O1988     1.0  0.44933  0.36197  0.24436  1.0000
  O   O1989     1.0  0.43867  0.38060  0.28627  1.0000
  C   C664      1.0  0.48733  0.98011  0.04464  1.0000
  O   O1990     1.0  0.49532  0.98540  0.07070  1.0000
  O   O1991     1.0  0.47684  0.95935  0.03973  1.0000
  O   O1992     1.0  0.48991  0.99553  0.02347  1.0000
  C   C665      1.0  0.33701  0.42133  0.76588  1.0000
  O   O1993     1.0  0.35237  0.43854  0.75885  1.0000
  O   O1994     1.0  0.32348  0.42312  0.78939  1.0000
  O   O1995     1.0  0.33536  0.40221  0.74956  1.0000
  C   C666      1.0  0.68805  0.68591  0.72412  1.0000
  O   O1996     1.0  0.67854  0.68947  0.74991  1.0000
  O   O1997     1.0  0.70574  0.69992  0.71454  1.0000
  O   O1998     1.0  0.67970  0.66850  0.70780  1.0000
  C   C667      1.0  0.98050  0.18840  0.29981  1.0000
  O   O1999     1.0  0.95683  0.19001  0.30607  1.0000
  O   O2000     1.0  0.99241  0.16832  0.30435  1.0000
  O   O2001     1.0  0.99230  0.20695  0.28926  1.0000
  C   C668      1.0  0.50827  0.33914  0.41292  1.0000
  O   O2002     1.0  0.51555  0.31732  0.41883  1.0000
  O   O2003     1.0  0.50922  0.34710  0.38622  1.0000
  O   O2004     1.0  0.49981  0.35292  0.43366  1.0000
  C   C669      1.0  0.62677  0.77287  0.44942  1.0000
  O   O2005     1.0  0.60326  0.77133  0.45644  1.0000
  O   O2006     1.0  0.64302  0.78026  0.46856  1.0000
  O   O2007     1.0  0.63407  0.76678  0.42334  1.0000
  C   C670      1.0  0.16367  0.55111  0.06214  1.0000
  O   O2008     1.0  0.14437  0.53797  0.06883  1.0000
  O   O2009     1.0  0.17444  0.54856  0.03685  1.0000
  O   O2010     1.0  0.17222  0.56679  0.08074  1.0000
  C   C671      1.0  0.78410  0.15208  0.70162  1.0000
  O   O2011     1.0  0.79982  0.15023  0.68005  1.0000
  O   O2012     1.0  0.78571  0.17012  0.71966  1.0000
  O   O2013     1.0  0.76663  0.13602  0.70500  1.0000
  C   C672      1.0  0.24225  0.56011  0.23143  1.0000
  O   O2014     1.0  0.23622  0.57230  0.20821  1.0000
  O   O2015     1.0  0.22493  0.55280  0.24930  1.0000
  O   O2016     1.0  0.26557  0.55502  0.23663  1.0000
  C   C673      1.0  0.41688  0.49323  0.08955  1.0000
  O   O2017     1.0  0.41322  0.51533  0.09798  1.0000
  O   O2018     1.0  0.42332  0.48877  0.06269  1.0000
  O   O2019     1.0  0.41432  0.47561  0.10804  1.0000
  C   C674      1.0  0.10625  0.04911  0.48794  1.0000
  O   O2020     1.0  0.12584  0.04982  0.50476  1.0000
  O   O2021     1.0  0.09812  0.06873  0.47566  1.0000
  O   O2022     1.0  0.09494  0.02874  0.48319  1.0000
  C   C675      1.0  0.77864  0.84784  0.24974  1.0000
  O   O2023     1.0  0.77187  0.86879  0.23976  1.0000
  O   O2024     1.0  0.79301  0.84645  0.27260  1.0000
  O   O2025     1.0  0.77123  0.82829  0.23669  1.0000
  C   C676      1.0  0.47997  0.84990  0.01264  1.0000
  O   O2026     1.0  0.50347  0.85536  0.01584  1.0000
  O   O2027     1.0  0.46769  0.85770  0.99002  1.0000
  O   O2028     1.0  0.46881  0.83651  0.03196  1.0000
  C   C677      1.0  0.95608  0.50811  0.32164  1.0000
  O   O2029     1.0  0.97899  0.50636  0.33093  1.0000
  O   O2030     1.0  0.93797  0.49829  0.33640  1.0000
  O   O2031     1.0  0.95129  0.51954  0.29747  1.0000
  C   C678      1.0  0.30442  0.29381  0.11479  1.0000
  O   O2032     1.0  0.30081  0.27144  0.12218  1.0000
  O   O2033     1.0  0.32693  0.30150  0.10940  1.0000
  O   O2034     1.0  0.28557  0.30857  0.11326  1.0000
  C   C679      1.0  0.12181  0.93865  0.56725  1.0000
  O   O2035     1.0  0.12236  0.96180  0.57158  1.0000
  O   O2036     1.0  0.10048  0.92761  0.56453  1.0000
  O   O2037     1.0  0.14259  0.92657  0.56535  1.0000
  C   C680      1.0  0.59547  0.20328  0.05316  1.0000
  O   O2038     1.0  0.57774  0.18846  0.06059  1.0000
  O   O2039     1.0  0.61062  0.21172  0.07290  1.0000
  O   O2040     1.0  0.59818  0.20952  0.02596  1.0000
  C   C681      1.0  0.59728  0.10770  0.46227  1.0000
  O   O2041     1.0  0.60005  0.10650  0.49046  1.0000
  O   O2042     1.0  0.57565  0.11329  0.45120  1.0000
  O   O2043     1.0  0.61616  0.10334  0.44515  1.0000
  C   C682      1.0  0.37048  0.26099  0.49101  1.0000
  O   O2044     1.0  0.38577  0.25095  0.47256  1.0000
  O   O2045     1.0  0.35248  0.27469  0.48158  1.0000
  O   O2046     1.0  0.37305  0.25713  0.51887  1.0000
  C   C683      1.0  0.06980  0.61008  0.22301  1.0000
  O   O2047     1.0  0.06829  0.59777  0.24712  1.0000
  O   O2048     1.0  0.07911  0.60020  0.19966  1.0000
  O   O2049     1.0  0.06213  0.63231  0.22229  1.0000
  C   C684      1.0  0.13291  0.86695  0.67584  1.0000
  O   O2050     1.0  0.13582  0.87084  0.70365  1.0000
  O   O2051     1.0  0.14811  0.87678  0.65714  1.0000
  O   O2052     1.0  0.11466  0.85340  0.66672  1.0000
  C   C685      1.0  0.52844  0.11865  0.52161  1.0000
  O   O2053     1.0  0.50467  0.11650  0.52702  1.0000
  O   O2054     1.0  0.54170  0.13449  0.53570  1.0000
  O   O2055     1.0  0.53899  0.10486  0.50222  1.0000
  C   C686      1.0  0.10739  0.95966  0.11418  1.0000
  O   O2056     1.0  0.12820  0.95850  0.12880  1.0000
  O   O2057     1.0  0.10410  0.97661  0.09494  1.0000
  O   O2058     1.0  0.08977  0.94401  0.11898  1.0000
  C   C687      1.0  0.82296  0.17671  0.85933  1.0000
  O   O2059     1.0  0.80162  0.17886  0.87271  1.0000
  O   O2060     1.0  0.84355  0.18273  0.87256  1.0000
  O   O2061     1.0  0.82373  0.16833  0.83281  1.0000
  C   C688      1.0  0.57669  0.43505  0.89997  1.0000
  O   O2062     1.0  0.59155  0.41917  0.88836  1.0000
  O   O2063     1.0  0.58319  0.44611  0.92385  1.0000
  O   O2064     1.0  0.55542  0.44002  0.88759  1.0000
  C   C689      1.0  0.06123  0.08971  0.49463  1.0000
  O   O2065     1.0  0.07339  0.10996  0.49309  1.0000
  O   O2066     1.0  0.04609  0.08351  0.47371  1.0000
  O   O2067     1.0  0.06401  0.07577  0.51724  1.0000
  C   C690      1.0  0.46155  0.37091  0.55460  1.0000
  O   O2068     1.0  0.43737  0.37023  0.55171  1.0000
  O   O2069     1.0  0.47191  0.36321  0.57855  1.0000
  O   O2070     1.0  0.47537  0.37935  0.53358  1.0000
  C   C691      1.0  0.40770  0.68292  0.07271  1.0000
  O   O2071     1.0  0.39162  0.69474  0.08850  1.0000
  O   O2072     1.0  0.41938  0.66447  0.08367  1.0000
  O   O2073     1.0  0.41221  0.68967  0.04601  1.0000
  C   C692      1.0  0.60689  0.61075  0.98773  1.0000
  O   O2074     1.0  0.61763  0.58977  0.98613  1.0000
  O   O2075     1.0  0.61608  0.62733  0.00470  1.0000
  O   O2076     1.0  0.58703  0.61520  0.97224  1.0000
  C   C693      1.0  0.34735  0.98276  0.58832  1.0000
  O   O2077     1.0  0.33642  0.00341  0.59249  1.0000
  O   O2078     1.0  0.33423  0.96407  0.58065  1.0000
  O   O2079     1.0  0.37140  0.98080  0.59181  1.0000
  C   C694      1.0  0.77699  0.06390  0.41501  1.0000
  O   O2080     1.0  0.78627  0.05154  0.43657  1.0000
  O   O2081     1.0  0.77417  0.08708  0.41748  1.0000
  O   O2082     1.0  0.77050  0.05307  0.39098  1.0000
  C   C695      1.0  0.32729  0.17048  0.53462  1.0000
  O   O2083     1.0  0.35014  0.17665  0.52842  1.0000
  O   O2084     1.0  0.30866  0.18152  0.52218  1.0000
  O   O2085     1.0  0.32306  0.15326  0.55324  1.0000
  C   C696      1.0  0.43859  0.76692  0.49405  1.0000
  O   O2086     1.0  0.45729  0.76691  0.51221  1.0000
  O   O2087     1.0  0.44232  0.77177  0.46660  1.0000
  O   O2088     1.0  0.41620  0.76189  0.50330  1.0000
  C   C697      1.0  0.47940  0.05286  0.91992  1.0000
  O   O2089     1.0  0.49518  0.06932  0.91161  1.0000
  O   O2090     1.0  0.45975  0.04825  0.90413  1.0000
  O   O2091     1.0  0.48326  0.04102  0.94401  1.0000
  C   C698      1.0  0.81445  0.19990  0.26392  1.0000
  O   O2092     1.0  0.81055  0.20572  0.23678  1.0000
  O   O2093     1.0  0.82968  0.18240  0.27028  1.0000
  O   O2094     1.0  0.80306  0.21152  0.28469  1.0000
  C   C699      1.0  0.47786  0.34329  0.08687  1.0000
  O   O2095     1.0  0.45451  0.34592  0.09413  1.0000
  O   O2096     1.0  0.48365  0.33435  0.06149  1.0000
  O   O2097     1.0  0.49542  0.34981  0.10486  1.0000
  C   C700      1.0  0.36136  0.82802  0.11293  1.0000
  O   O2098     1.0  0.37738  0.83922  0.12944  1.0000
  O   O2099     1.0  0.34289  0.83980  0.10119  1.0000
  O   O2100     1.0  0.36373  0.80501  0.10829  1.0000
  C   C701      1.0  0.62632  0.89922  0.10367  1.0000
  O   O2101     1.0  0.64435  0.90563  0.08626  1.0000
  O   O2102     1.0  0.62947  0.90015  0.13182  1.0000
  O   O2103     1.0  0.60513  0.89187  0.09293  1.0000
  C   C702      1.0  0.93451  0.73052  0.96491  1.0000
  O   O2104     1.0  0.94335  0.71479  0.94655  1.0000
  O   O2105     1.0  0.94771  0.73695  0.98746  1.0000
  O   O2106     1.0  0.91253  0.73989  0.96064  1.0000
  C   C703      1.0  0.97854  0.47106  0.24080  1.0000
  O   O2107     1.0  0.95653  0.46633  0.23016  1.0000
  O   O2108     1.0  0.98108  0.48751  0.26083  1.0000
  O   O2109     1.0  0.99789  0.45879  0.23212  1.0000
  C   C704      1.0  0.25056  0.02308  0.39070  1.0000
  O   O2110     1.0  0.24970  0.01928  0.41871  1.0000
  O   O2111     1.0  0.24685  0.04464  0.38043  1.0000
  O   O2112     1.0  0.25493  0.00529  0.37293  1.0000
  C   C705      1.0  0.26904  0.96286  0.03504  1.0000
  O   O2113     1.0  0.24500  0.95939  0.03413  1.0000
  O   O2114     1.0  0.28169  0.96494  0.01090  1.0000
  O   O2115     1.0  0.28047  0.96403  0.06008  1.0000
  C   C706      1.0  0.30816  0.69170  0.64434  1.0000
  O   O2116     1.0  0.32484  0.70825  0.64935  1.0000
  O   O2117     1.0  0.30201  0.67664  0.66488  1.0000
  O   O2118     1.0  0.29752  0.69031  0.61885  1.0000
  C   C707      1.0  0.67325  0.85630  0.75480  1.0000
  O   O2119     1.0  0.69329  0.85802  0.73883  1.0000
  O   O2120     1.0  0.65721  0.87390  0.75541  1.0000
  O   O2121     1.0  0.66929  0.83698  0.77021  1.0000
  C   C708      1.0  0.61409  0.27517  0.10609  1.0000
  O   O2122     1.0  0.62842  0.25632  0.10831  1.0000
  O   O2123     1.0  0.62154  0.29582  0.11629  1.0000
  O   O2124     1.0  0.59239  0.27340  0.09343  1.0000
  C   C709      1.0  0.83816  0.38347  0.15544  1.0000
  O   O2125     1.0  0.82119  0.40025  0.15612  1.0000
  O   O2126     1.0  0.85701  0.38530  0.13763  1.0000
  O   O2127     1.0  0.83617  0.36478  0.17242  1.0000
  C   C710      1.0  0.96213  0.37615  0.25376  1.0000
  O   O2128     1.0  0.93791  0.37454  0.25542  1.0000
  O   O2129     1.0  0.97240  0.39528  0.24255  1.0000
  O   O2130     1.0  0.97608  0.35861  0.26321  1.0000
  C   C711      1.0  0.93882  0.76178  0.89963  1.0000
  O   O2131     1.0  0.96270  0.75820  0.89643  1.0000
  O   O2132     1.0  0.93034  0.78349  0.90366  1.0000
  O   O2133     1.0  0.92344  0.74363  0.89903  1.0000
  C   C712      1.0  0.98852  0.60045  0.76086  1.0000
  O   O2134     1.0  0.01255  0.60345  0.76326  1.0000
  O   O2135     1.0  0.97401  0.61898  0.75690  1.0000
  O   O2136     1.0  0.97901  0.57891  0.76213  1.0000
  C   C713      1.0  0.45962  0.49074  0.58772  1.0000
  O   O2137     1.0  0.48280  0.49096  0.59629  1.0000
  O   O2138     1.0  0.44973  0.51000  0.57639  1.0000
  O   O2139     1.0  0.44628  0.47129  0.59060  1.0000
  C   C714      1.0  0.19645  0.11583  0.18841  1.0000
  O   O2140     1.0  0.21050  0.11567  0.21160  1.0000
  O   O2141     1.0  0.18718  0.13601  0.17887  1.0000
  O   O2142     1.0  0.19149  0.09577  0.17491  1.0000
  C   C715      1.0  0.38881  0.60451  0.12881  1.0000
  O   O2143     1.0  0.41020  0.61452  0.13481  1.0000
  O   O2144     1.0  0.38438  0.59658  0.10259  1.0000
  O   O2145     1.0  0.37194  0.60228  0.14909  1.0000
  C   C716      1.0  0.77851  0.03981  0.59191  1.0000
  O   O2146     1.0  0.78400  0.03177  0.56600  1.0000
  O   O2147     1.0  0.77555  0.06280  0.59615  1.0000
  O   O2148     1.0  0.77577  0.02483  0.61352  1.0000
  C   C717      1.0  0.97077  0.04359  0.84264  1.0000
  O   O2149     1.0  0.95127  0.03281  0.85349  1.0000
  O   O2150     1.0  0.99294  0.03451  0.84655  1.0000
  O   O2151     1.0  0.96808  0.06337  0.82774  1.0000
  C   C718      1.0  0.97867  0.06972  0.95786  1.0000
  O   O2152     1.0  0.97520  0.09289  0.95918  1.0000
  O   O2153     1.0  0.99483  0.06082  0.93958  1.0000
  O   O2154     1.0  0.96583  0.05544  0.97466  1.0000
  C   C719      1.0  0.69345  0.96444  0.66303  1.0000
  O   O2155     1.0  0.69961  0.95536  0.68821  1.0000
  O   O2156     1.0  0.70574  0.98275  0.65261  1.0000
  O   O2157     1.0  0.67491  0.95531  0.64835  1.0000
  C   C720      1.0  0.79566  0.15640  0.32856  1.0000
  O   O2158     1.0  0.77206  0.15754  0.33528  1.0000
  O   O2159     1.0  0.80253  0.14714  0.30373  1.0000
  O   O2160     1.0  0.81239  0.16448  0.34670  1.0000
  C   C721      1.0  0.87071  0.92264  0.17725  1.0000
  O   O2161     1.0  0.88335  0.90531  0.16511  1.0000
  O   O2162     1.0  0.85363  0.93399  0.16241  1.0000
  O   O2163     1.0  0.87502  0.92853  0.20428  1.0000
  C   C722      1.0  0.50487  0.26974  0.73220  1.0000
  O   O2164     1.0  0.49916  0.24861  0.72189  1.0000
  O   O2165     1.0  0.52820  0.27590  0.73517  1.0000
  O   O2166     1.0  0.48725  0.28472  0.73951  1.0000
  C   C723      1.0  0.61653  0.07646  0.87185  1.0000
  O   O2167     1.0  0.60937  0.08831  0.89488  1.0000
  O   O2168     1.0  0.62338  0.05405  0.87418  1.0000
  O   O2169     1.0  0.61706  0.08707  0.84652  1.0000
  C   C724      1.0  0.41650  0.81924  0.93392  1.0000
  O   O2170     1.0  0.41657  0.79930  0.91901  1.0000
  O   O2171     1.0  0.40499  0.83812  0.92381  1.0000
  O   O2172     1.0  0.42776  0.82024  0.95908  1.0000
  C   C725      1.0  0.78128  0.62231  0.09042  1.0000
  O   O2173     1.0  0.79588  0.62982  0.11124  1.0000
  O   O2174     1.0  0.75778  0.62837  0.09031  1.0000
  O   O2175     1.0  0.79016  0.60874  0.06972  1.0000
  C   C726      1.0  0.58703  0.02828  0.53844  1.0000
  O   O2176     1.0  0.60347  0.01104  0.53737  1.0000
  O   O2177     1.0  0.58503  0.04145  0.56182  1.0000
  O   O2178     1.0  0.57274  0.03250  0.51602  1.0000
  C   C727      1.0  0.97175  0.69516  0.52762  1.0000
  O   O2179     1.0  0.97326  0.70524  0.55321  1.0000
  O   O2180     1.0  0.95149  0.69746  0.51215  1.0000
  O   O2181     1.0  0.99050  0.68279  0.51750  1.0000
  C   C728      1.0  0.50102  0.64364  0.59616  1.0000
  O   O2182     1.0  0.47682  0.64322  0.59892  1.0000
  O   O2183     1.0  0.51468  0.65433  0.61577  1.0000
  O   O2184     1.0  0.51154  0.63352  0.57368  1.0000
  C   C729      1.0  0.60156  0.52672  0.94311  1.0000
  O   O2185     1.0  0.60828  0.54129  0.96393  1.0000
  O   O2186     1.0  0.58458  0.53334  0.92441  1.0000
  O   O2187     1.0  0.61174  0.50551  0.94104  1.0000
  C   C730      1.0  0.69022  0.48742  0.79643  1.0000
  O   O2188     1.0  0.67329  0.48221  0.77703  1.0000
  O   O2189     1.0  0.68484  0.50176  0.81799  1.0000
  O   O2190     1.0  0.71254  0.47827  0.79426  1.0000
  C   C731      1.0  0.40785  0.04881  0.51302  1.0000
  O   O2191     1.0  0.39973  0.06587  0.49601  1.0000
  O   O2192     1.0  0.41488  0.05381  0.53954  1.0000
  O   O2193     1.0  0.40876  0.02672  0.50360  1.0000
  C   C732      1.0  0.08504  0.23097  0.17199  1.0000
  O   O2194     1.0  0.06531  0.24451  0.17456  1.0000
  O   O2195     1.0  0.09229  0.22383  0.14629  1.0000
  O   O2196     1.0  0.09739  0.22440  0.19513  1.0000
  C   C733      1.0  0.05245  0.71336  0.87444  1.0000
  O   O2197     1.0  0.07232  0.70624  0.88837  1.0000
  O   O2198     1.0  0.04245  0.73412  0.88053  1.0000
  O   O2199     1.0  0.04264  0.69976  0.85434  1.0000
  C   C734      1.0  0.70847  0.18080  0.05164  1.0000
  O   O2200     1.0  0.72358  0.19483  0.06600  1.0000
  O   O2201     1.0  0.71382  0.17442  0.02503  1.0000
  O   O2202     1.0  0.68789  0.17333  0.06379  1.0000
  C   C735      1.0  0.56010  0.86223  0.79006  1.0000
  O   O2203     1.0  0.57509  0.84518  0.78149  1.0000
  O   O2204     1.0  0.56174  0.88360  0.77856  1.0000
  O   O2205     1.0  0.54362  0.85796  0.81030  1.0000
  C   C736      1.0  0.01990  0.21099  0.99284  1.0000
  O   O2206     1.0  0.03109  0.20883  0.01793  1.0000
  O   O2207     1.0  0.99812  0.22134  0.99131  1.0000
  O   O2208     1.0  0.03048  0.20277  0.96927  1.0000
  C   C737      1.0  0.36723  0.78526  0.56284  1.0000
  O   O2209     1.0  0.35404  0.76580  0.56654  1.0000
  O   O2210     1.0  0.38937  0.78392  0.55120  1.0000
  O   O2211     1.0  0.35833  0.80602  0.57092  1.0000
  C   C738      1.0  0.37778  0.46565  0.91398  1.0000
  O   O2212     1.0  0.37950  0.48846  0.90778  1.0000
  O   O2213     1.0  0.36226  0.45841  0.93402  1.0000
  O   O2214     1.0  0.39174  0.45011  0.90034  1.0000
  C   C739      1.0  0.73263  0.91362  0.23302  1.0000
  O   O2215     1.0  0.73665  0.89882  0.21151  1.0000
  O   O2216     1.0  0.71552  0.90876  0.25233  1.0000
  O   O2217     1.0  0.74568  0.93331  0.23520  1.0000
  C   C740      1.0  0.17580  0.06285  0.57212  1.0000
  O   O2218     1.0  0.16765  0.04673  0.59042  1.0000
  O   O2219     1.0  0.17554  0.08552  0.57927  1.0000
  O   O2220     1.0  0.18403  0.05630  0.54660  1.0000
  C   C741      1.0  0.29398  0.54794  0.94126  1.0000
  O   O2221     1.0  0.27803  0.56402  0.95022  1.0000
  O   O2222     1.0  0.29414  0.52659  0.95294  1.0000
  O   O2223     1.0  0.30968  0.55319  0.92052  1.0000
  C   C742      1.0  0.67871  0.96426  0.79675  1.0000
  O   O2224     1.0  0.67106  0.98592  0.79063  1.0000
  O   O2225     1.0  0.66290  0.94818  0.80603  1.0000
  O   O2226     1.0  0.70218  0.95867  0.79357  1.0000
  C   C743      1.0  0.00117  0.92474  0.61844  1.0000
  O   O2227     1.0  0.98821  0.90709  0.60750  1.0000
  O   O2228     1.0  0.99279  0.94670  0.61679  1.0000
  O   O2229     1.0  0.02259  0.92046  0.63085  1.0000
  C   C744      1.0  0.94675  0.87218  0.58163  1.0000
  O   O2230     1.0  0.94917  0.86718  0.60924  1.0000
  O   O2231     1.0  0.92691  0.88339  0.57238  1.0000
  O   O2232     1.0  0.96415  0.86597  0.56327  1.0000
  C   C745      1.0  0.85794  0.53653  0.30641  1.0000
  O   O2233     1.0  0.85521  0.55132  0.32821  1.0000
  O   O2234     1.0  0.83907  0.53173  0.28946  1.0000
  O   O2235     1.0  0.87960  0.52671  0.30139  1.0000
  C   C746      1.0  0.77262  0.42540  0.18216  1.0000
  O   O2236     1.0  0.77246  0.40197  0.18256  1.0000
  O   O2237     1.0  0.76733  0.43742  0.20575  1.0000
  O   O2238     1.0  0.77793  0.43680  0.15813  1.0000
  C   C747      1.0  0.61232  0.60293  0.30738  1.0000
  O   O2239     1.0  0.60752  0.62037  0.28925  1.0000
  O   O2240     1.0  0.59413  0.59214  0.32097  1.0000
  O   O2241     1.0  0.63530  0.59613  0.31173  1.0000
  C   C748      1.0  0.44663  0.62148  0.45510  1.0000
  O   O2242     1.0  0.45916  0.63256  0.47541  1.0000
  O   O2243     1.0  0.44484  0.63092  0.42918  1.0000
  O   O2244     1.0  0.43577  0.60104  0.46075  1.0000
  C   C749      1.0  0.95328  0.72442  0.79270  1.0000
  O   O2245     1.0  0.96343  0.72448  0.81851  1.0000
  O   O2246     1.0  0.93272  0.73633  0.78805  1.0000
  O   O2247     1.0  0.96360  0.71230  0.77158  1.0000
  C   C750      1.0  0.25790  0.42835  0.37761  1.0000
  O   O2248     1.0  0.27583  0.43935  0.39140  1.0000
  O   O2249     1.0  0.23500  0.43600  0.38003  1.0000
  O   O2250     1.0  0.26282  0.40958  0.36162  1.0000
  C   C751      1.0  0.18864  0.20022  0.93885  1.0000
  O   O2251     1.0  0.20172  0.21350  0.95658  1.0000
  O   O2252     1.0  0.19030  0.20352  0.91079  1.0000
  O   O2253     1.0  0.17373  0.18379  0.94918  1.0000
  C   C752      1.0  0.93871  0.50180  0.50613  1.0000
  O   O2254     1.0  0.95569  0.51415  0.49237  1.0000
  O   O2255     1.0  0.93233  0.50776  0.53258  1.0000
  O   O2256     1.0  0.92793  0.48363  0.49335  1.0000
  C   C753      1.0  0.72992  0.58609  0.38854  1.0000
  O   O2257     1.0  0.72281  0.56513  0.37895  1.0000
  O   O2258     1.0  0.74941  0.59656  0.37727  1.0000
  O   O2259     1.0  0.71748  0.59661  0.40936  1.0000
  C   C754      1.0  0.78022  0.21382  0.35797  1.0000
  O   O2260     1.0  0.75802  0.21708  0.34707  1.0000
  O   O2261     1.0  0.79959  0.22346  0.34539  1.0000
  O   O2262     1.0  0.78308  0.20072  0.38129  1.0000
  C   C755      1.0  0.88266  0.90232  0.44343  1.0000
  O   O2263     1.0  0.88724  0.87930  0.44374  1.0000
  O   O2264     1.0  0.86424  0.91071  0.42792  1.0000
  O   O2265     1.0  0.89637  0.91692  0.45884  1.0000
  C   C756      1.0  0.47900  0.05848  0.52077  1.0000
  O   O2266     1.0  0.49803  0.05818  0.50309  1.0000
  O   O2267     1.0  0.46272  0.07584  0.51925  1.0000
  O   O2268     1.0  0.47625  0.04141  0.53996  1.0000
  C   C757      1.0  0.72149  0.77860  0.21329  1.0000
  O   O2269     1.0  0.74312  0.78500  0.20286  1.0000
  O   O2270     1.0  0.70142  0.79028  0.20574  1.0000
  O   O2271     1.0  0.71990  0.76037  0.23105  1.0000
  C   C758      1.0  0.20670  0.88166  0.02828  1.0000
  O   O2272     1.0  0.21759  0.89473  0.00843  1.0000
  O   O2273     1.0  0.18261  0.87847  0.02749  1.0000
  O   O2274     1.0  0.21992  0.87159  0.04876  1.0000
  C   C759      1.0  0.16762  0.91127  0.48953  1.0000
  O   O2275     1.0  0.15561  0.90521  0.46594  1.0000
  O   O2276     1.0  0.18100  0.93083  0.48995  1.0000
  O   O2277     1.0  0.16626  0.89776  0.51269  1.0000
  C   C760      1.0  0.30842  0.44516  0.31206  1.0000
  O   O2278     1.0  0.32727  0.45956  0.31621  1.0000
  O   O2279     1.0  0.29243  0.44959  0.29133  1.0000
  O   O2280     1.0  0.30554  0.42634  0.32864  1.0000
  C   C761      1.0  0.36913  0.40864  0.31149  1.0000
  O   O2281     1.0  0.38981  0.39949  0.30148  1.0000
  O   O2282     1.0  0.36971  0.42814  0.32722  1.0000
  O   O2283     1.0  0.34786  0.39831  0.30574  1.0000
  C   C762      1.0  0.18246  0.05000  0.41373  1.0000
  O   O2284     1.0  0.19775  0.04786  0.43566  1.0000
  O   O2285     1.0  0.15987  0.05795  0.41795  1.0000
  O   O2286     1.0  0.18984  0.04441  0.38751  1.0000
  C   C763      1.0  0.76443  0.30736  0.02131  1.0000
  O   O2287     1.0  0.77344  0.31253  0.04694  1.0000
  O   O2288     1.0  0.77887  0.29807  0.00141  1.0000
  O   O2289     1.0  0.74107  0.31171  0.01548  1.0000
  C   C764      1.0  0.36145  0.08618  0.18158  1.0000
  O   O2290     1.0  0.34301  0.09940  0.17231  1.0000
  O   O2291     1.0  0.37152  0.09053  0.20690  1.0000
  O   O2292     1.0  0.36981  0.06858  0.16556  1.0000
  C   C765      1.0  0.26946  0.75760  0.79472  1.0000
  O   O2293     1.0  0.27396  0.77741  0.78049  1.0000
  O   O2294     1.0  0.25098  0.75664  0.81315  1.0000
  O   O2295     1.0  0.28330  0.73867  0.79033  1.0000
  C   C766      1.0  0.76186  0.77559  0.97010  1.0000
  O   O2296     1.0  0.75483  0.75686  0.95513  1.0000
  O   O2297     1.0  0.77588  0.77287  0.99308  1.0000
  O   O2298     1.0  0.75467  0.79702  0.96226  1.0000
  C   C767      1.0  0.75165  0.18175  0.84029  1.0000
  O   O2299     1.0  0.76925  0.19096  0.82416  1.0000
  O   O2300     1.0  0.74395  0.19316  0.86341  1.0000
  O   O2301     1.0  0.74194  0.16102  0.83345  1.0000
  C   C768      1.0  0.11215  0.76681  0.71559  1.0000
  O   O2302     1.0  0.09759  0.77806  0.69738  1.0000
  O   O2303     1.0  0.11099  0.77160  0.74337  1.0000
  O   O2304     1.0  0.12787  0.75076  0.70603  1.0000
  C   C769      1.0  0.38134  0.94064  0.78416  1.0000
  O   O2305     1.0  0.40301  0.95052  0.77934  1.0000
  O   O2306     1.0  0.36830  0.94693  0.80690  1.0000
  O   O2307     1.0  0.37264  0.92460  0.76612  1.0000
  C   C770      1.0  0.38299  0.18811  0.90772  1.0000
  O   O2308     1.0  0.36764  0.20226  0.92157  1.0000
  O   O2309     1.0  0.40605  0.18615  0.91640  1.0000
  O   O2310     1.0  0.37522  0.17581  0.88531  1.0000
  C   C771      1.0  0.72359  0.98662  0.58467  1.0000
  O   O2311     1.0  0.70902  0.00364  0.59424  1.0000
  O   O2312     1.0  0.72239  0.97995  0.55747  1.0000
  O   O2313     1.0  0.73952  0.97642  0.60222  1.0000
  C   C772      1.0  0.05907  0.77183  0.64188  1.0000
  O   O2314     1.0  0.04440  0.76786  0.66403  1.0000
  O   O2315     1.0  0.05386  0.78896  0.62347  1.0000
  O   O2316     1.0  0.07903  0.75879  0.63827  1.0000
  C   C773      1.0  0.17753  0.49888  0.59971  1.0000
  O   O2317     1.0  0.18247  0.51507  0.61942  1.0000
  O   O2318     1.0  0.19500  0.48430  0.59086  1.0000
  O   O2319     1.0  0.15516  0.49737  0.58870  1.0000
  C   C774      1.0  0.44796  0.84414  0.29803  1.0000
  O   O2320     1.0  0.46363  0.83313  0.31517  1.0000
  O   O2321     1.0  0.43002  0.85707  0.30908  1.0000
  O   O2322     1.0  0.45036  0.84239  0.26984  1.0000
  C   C775      1.0  0.85150  0.37969  0.34111  1.0000
  O   O2323     1.0  0.83141  0.37907  0.35712  1.0000
  O   O2324     1.0  0.87194  0.36953  0.35033  1.0000
  O   O2325     1.0  0.85114  0.39048  0.31590  1.0000
  C   C776      1.0  0.34749  0.17194  0.39470  1.0000
  O   O2326     1.0  0.36928  0.17775  0.38422  1.0000
  O   O2327     1.0  0.32730  0.18094  0.38322  1.0000
  O   O2328     1.0  0.34589  0.15698  0.41649  1.0000
  C   C777      1.0  0.00570  0.28816  0.08030  1.0000
  O   O2329     1.0  0.01354  0.30902  0.07118  1.0000
  O   O2330     1.0  0.98270  0.28162  0.07559  1.0000
  O   O2331     1.0  0.02070  0.27406  0.09470  1.0000
  C   C778      1.0  0.76469  0.39408  0.74040  1.0000
  O   O2332     1.0  0.75947  0.37684  0.75866  1.0000
  O   O2333     1.0  0.78311  0.39164  0.72209  1.0000
  O   O2334     1.0  0.75158  0.41381  0.74058  1.0000
  C   C779      1.0  0.33658  0.58389  0.67307  1.0000
  O   O2335     1.0  0.31954  0.58576  0.69322  1.0000
  O   O2336     1.0  0.33303  0.56965  0.65089  1.0000
  O   O2337     1.0  0.35715  0.59628  0.67509  1.0000
  C   C780      1.0  0.42556  0.88810  0.81355  1.0000
  O   O2338     1.0  0.41236  0.86842  0.81323  1.0000
  O   O2339     1.0  0.43021  0.89942  0.78928  1.0000
  O   O2340     1.0  0.43406  0.89649  0.83815  1.0000
  C   C781      1.0  0.43799  0.29598  0.09973  1.0000
  O   O2341     1.0  0.45523  0.28668  0.08317  1.0000
  O   O2342     1.0  0.44192  0.29851  0.12760  1.0000
  O   O2343     1.0  0.41688  0.30292  0.08839  1.0000
  C   C782      1.0  0.00618  0.40201  0.79287  1.0000
  O   O2344     1.0  0.01752  0.42073  0.78207  1.0000
  O   O2345     1.0  0.01767  0.38820  0.81149  1.0000
  O   O2346     1.0  0.98345  0.39697  0.78484  1.0000
  C   C783      1.0  0.19063  0.80989  0.84564  1.0000
  O   O2347     1.0  0.16872  0.79972  0.84555  1.0000
  O   O2348     1.0  0.19358  0.83092  0.85768  1.0000
  O   O2349     1.0  0.20960  0.79902  0.83369  1.0000
  C   C784      1.0  0.72530  0.20207  0.39424  1.0000
  O   O2350     1.0  0.73172  0.20941  0.42016  1.0000
  O   O2351     1.0  0.71073  0.21528  0.37809  1.0000
  O   O2352     1.0  0.73360  0.18160  0.38439  1.0000
  C   C785      1.0  0.40005  0.78086  0.78172  1.0000
  O   O2353     1.0  0.39387  0.77978  0.75427  1.0000
  O   O2354     1.0  0.38751  0.76859  0.80099  1.0000
  O   O2355     1.0  0.41861  0.79441  0.78994  1.0000
  C   C786      1.0  0.44721  0.02363  0.46079  1.0000
  O   O2356     1.0  0.45670  0.03005  0.48577  1.0000
  O   O2357     1.0  0.44102  0.03992  0.44168  1.0000
  O   O2358     1.0  0.44410  0.00092  0.45483  1.0000
  C   C787      1.0  0.44104  0.95851  0.67695  1.0000
  O   O2359     1.0  0.46315  0.96679  0.68322  1.0000
  O   O2360     1.0  0.42144  0.97203  0.68067  1.0000
  O   O2361     1.0  0.43856  0.93679  0.66667  1.0000
  C   C788      1.0  0.12852  0.23219  0.58692  1.0000
  O   O2362     1.0  0.14024  0.25246  0.58291  1.0000
  O   O2363     1.0  0.10707  0.23196  0.60031  1.0000
  O   O2364     1.0  0.13836  0.21213  0.57778  1.0000
  C   C789      1.0  0.35677  0.63540  0.72490  1.0000
  O   O2365     1.0  0.38037  0.64100  0.72591  1.0000
  O   O2366     1.0  0.34845  0.61712  0.73980  1.0000
  O   O2367     1.0  0.34150  0.64806  0.70900  1.0000
  C   C790      1.0  0.07072  0.82425  0.82598  1.0000
  O   O2368     1.0  0.09216  0.82566  0.81268  1.0000
  O   O2369     1.0  0.06621  0.83784  0.84851  1.0000
  O   O2370     1.0  0.05388  0.80909  0.81691  1.0000
  C   C791      1.0  0.26603  0.36342  0.08601  1.0000
  O   O2371     1.0  0.26044  0.34532  0.06918  1.0000
  O   O2372     1.0  0.28659  0.36310  0.10117  1.0000
  O   O2373     1.0  0.25113  0.38190  0.08753  1.0000
  C   C792      1.0  0.10323  0.36928  0.09969  1.0000
  O   O2374     1.0  0.11761  0.37975  0.08061  1.0000
  O   O2375     1.0  0.09445  0.38149  0.12166  1.0000
  O   O2376     1.0  0.09782  0.34655  0.09694  1.0000
  C   C793      1.0  0.54093  0.39803  0.06301  1.0000
  O   O2377     1.0  0.56193  0.40969  0.06068  1.0000
  O   O2378     1.0  0.52635  0.39578  0.04043  1.0000
  O   O2379     1.0  0.53439  0.38882  0.08799  1.0000
  C   C794      1.0  0.86810  0.49539  0.62903  1.0000
  O   O2380     1.0  0.87947  0.50803  0.60912  1.0000
  O   O2381     1.0  0.84397  0.49694  0.63196  1.0000
  O   O2382     1.0  0.88091  0.48136  0.64618  1.0000
  C   C795      1.0  0.42592  0.49063  0.79619  1.0000
  O   O2383     1.0  0.44782  0.49750  0.78708  1.0000
  O   O2384     1.0  0.40666  0.49207  0.77891  1.0000
  O   O2385     1.0  0.42330  0.48212  0.82248  1.0000
  C   C796      1.0  0.89639  0.87256  0.31265  1.0000
  O   O2386     1.0  0.90106  0.89344  0.32433  1.0000
  O   O2387     1.0  0.87383  0.86731  0.30417  1.0000
  O   O2388     1.0  0.91433  0.85698  0.30925  1.0000
  C   C797      1.0  0.53752  0.41472  0.92697  1.0000
  O   O2389     1.0  0.52200  0.40960  0.90600  1.0000
  O   O2390     1.0  0.55898  0.40375  0.92847  1.0000
  O   O2391     1.0  0.53158  0.43078  0.94646  1.0000
  C   C798      1.0  0.52768  0.74871  0.04801  1.0000
  O   O2392     1.0  0.54699  0.74209  0.06331  1.0000
  O   O2393     1.0  0.53083  0.75923  0.02289  1.0000
  O   O2394     1.0  0.50522  0.74502  0.05796  1.0000
  C   C799      1.0  0.91221  0.67193  0.98879  1.0000
  O   O2395     1.0  0.93293  0.66581  0.97589  1.0000
  O   O2396     1.0  0.90698  0.69457  0.99284  1.0000
  O   O2397     1.0  0.89685  0.65540  0.99793  1.0000
  C   C800      1.0  0.49007  0.60536  0.07083  1.0000
  O   O2398     1.0  0.48994  0.60434  0.09921  1.0000
  O   O2399     1.0  0.50350  0.62154  0.05756  1.0000
  O   O2400     1.0  0.47693  0.59009  0.05572  1.0000
  C   C801      1.0  0.32959  0.22730  0.08191  1.0000
  O   O2401     1.0  0.34179  0.21593  0.06156  1.0000
  O   O2402     1.0  0.33795  0.22730  0.10859  1.0000
  O   O2403     1.0  0.30892  0.23850  0.07562  1.0000
  C   C802      1.0  0.36273  0.54070  0.68525  1.0000
  O   O2404     1.0  0.38256  0.55247  0.69342  1.0000
  O   O2405     1.0  0.34146  0.54451  0.69823  1.0000
  O   O2406     1.0  0.36421  0.52498  0.66425  1.0000
  C   C803      1.0  0.54156  0.55835  0.86900  1.0000
  O   O2407     1.0  0.56028  0.57149  0.87768  1.0000
  O   O2408     1.0  0.51880  0.56464  0.87551  1.0000
  O   O2409     1.0  0.54558  0.53905  0.85360  1.0000
  C   C804      1.0  0.08604  0.42738  0.61432  1.0000
  O   O2410     1.0  0.08430  0.44913  0.62467  1.0000
  O   O2411     1.0  0.06707  0.41765  0.60102  1.0000
  O   O2412     1.0  0.10672  0.41531  0.61737  1.0000
  C   C805      1.0  0.01656  0.10817  0.11175  1.0000
  O   O2413     1.0  0.99611  0.11483  0.12483  1.0000
  O   O2414     1.0  0.03103  0.12419  0.09976  1.0000
  O   O2415     1.0  0.02242  0.08545  0.11041  1.0000
  C   C806      1.0  0.26199  0.67241  0.06616  1.0000
  O   O2416     1.0  0.24709  0.68141  0.08578  1.0000
  O   O2417     1.0  0.26430  0.68292  0.04091  1.0000
  O   O2418     1.0  0.27474  0.65303  0.07188  1.0000
  C   C807      1.0  0.70024  0.68980  0.10703  1.0000
  O   O2419     1.0  0.71257  0.68788  0.08266  1.0000
  O   O2420     1.0  0.71194  0.68812  0.13186  1.0000
  O   O2421     1.0  0.67621  0.69342  0.10658  1.0000
  C   C808      1.0  0.54534  0.18647  0.64964  1.0000
  O   O2422     1.0  0.56858  0.19285  0.64633  1.0000
  O   O2423     1.0  0.52800  0.20281  0.65173  1.0000
  O   O2424     1.0  0.53945  0.16376  0.65082  1.0000
  C   C809      1.0  0.90638  0.15615  0.68150  1.0000
  O   O2425     1.0  0.92029  0.14865  0.70296  1.0000
  O   O2426     1.0  0.91469  0.15516  0.65483  1.0000
  O   O2427     1.0  0.88423  0.16481  0.68673  1.0000
  C   C810      1.0  0.82842  0.79505  0.71558  1.0000
  O   O2428     1.0  0.81460  0.79149  0.69260  1.0000
  O   O2429     1.0  0.81846  0.79435  0.74148  1.0000
  O   O2430     1.0  0.85220  0.79934  0.71265  1.0000
  C   C811      1.0  0.07581  0.95613  0.64443  1.0000
  O   O2431     1.0  0.08294  0.97594  0.65710  1.0000
  O   O2432     1.0  0.07468  0.93618  0.65929  1.0000
  O   O2433     1.0  0.06971  0.95627  0.61693  1.0000
  C   C812      1.0  0.53243  0.88155  0.42868  1.0000
  O   O2434     1.0  0.51303  0.89568  0.42938  1.0000
  O   O2435     1.0  0.54250  0.87580  0.40378  1.0000
  O   O2436     1.0  0.54189  0.87336  0.45289  1.0000
  C   C813      1.0  0.12378  0.94564  0.48748  1.0000
  O   O2437     1.0  0.11165  0.92631  0.49501  1.0000
  O   O2438     1.0  0.13651  0.95758  0.50689  1.0000
  O   O2439     1.0  0.12299  0.95318  0.46059  1.0000
  C   C814      1.0  0.92921  0.97362  0.86373  1.0000
  O   O2440     1.0  0.94243  0.98655  0.88170  1.0000
  O   O2441     1.0  0.93592  0.95163  0.85779  1.0000
  O   O2442     1.0  0.90913  0.98258  0.85195  1.0000
  C   C815      1.0  0.20846  0.34806  0.61087  1.0000
  O   O2443     1.0  0.19089  0.36317  0.60375  1.0000
  O   O2444     1.0  0.23083  0.35590  0.61667  1.0000
  O   O2445     1.0  0.20369  0.32510  0.61196  1.0000
  C   C816      1.0  0.36637  0.51663  0.40048  1.0000
  O   O2446     1.0  0.34351  0.52392  0.39648  1.0000
  O   O2447     1.0  0.37201  0.49404  0.39687  1.0000
  O   O2448     1.0  0.38362  0.53197  0.40790  1.0000
  C   C817      1.0  0.49999  0.02743  0.14511  1.0000
  O   O2449     1.0  0.51255  0.01132  0.13060  1.0000
  O   O2450     1.0  0.50721  0.03376  0.17113  1.0000
  O   O2451     1.0  0.48032  0.03735  0.13350  1.0000
  C   C818      1.0  0.09838  0.87876  0.17124  1.0000
  O   O2452     1.0  0.07857  0.86600  0.17693  1.0000
  O   O2453     1.0  0.11652  0.86950  0.15599  1.0000
  O   O2454     1.0  0.09999  0.90081  0.18064  1.0000
  C   C819      1.0  0.83738  0.34690  0.94447  1.0000
  O   O2455     1.0  0.84445  0.32593  0.95410  1.0000
  O   O2456     1.0  0.84945  0.36620  0.95225  1.0000
  O   O2457     1.0  0.81822  0.34856  0.92708  1.0000
  C   C820      1.0  0.55006  0.51760  0.22806  1.0000
  O   O2458     1.0  0.57389  0.52083  0.23213  1.0000
  O   O2459     1.0  0.53425  0.53418  0.23593  1.0000
  O   O2460     1.0  0.54201  0.49770  0.21636  1.0000
  C   C821      1.0  0.22318  0.92027  0.56525  1.0000
  O   O2461     1.0  0.22168  0.92638  0.59262  1.0000
  O   O2462     1.0  0.20316  0.91996  0.54911  1.0000
  O   O2463     1.0  0.24473  0.91473  0.55393  1.0000
  C   C822      1.0  0.87339  0.14234  0.40126  1.0000
  O   O2464     1.0  0.85399  0.14189  0.38414  1.0000
  O   O2465     1.0  0.87350  0.15625  0.42412  1.0000
  O   O2466     1.0  0.89259  0.12871  0.39567  1.0000
  C   C823      1.0  0.87846  0.32013  0.27845  1.0000
  O   O2467     1.0  0.88824  0.33641  0.29539  1.0000
  O   O2468     1.0  0.86640  0.30202  0.28971  1.0000
  O   O2469     1.0  0.88062  0.32202  0.25025  1.0000
  C   C824      1.0  0.81468  0.35767  0.25094  1.0000
  O   O2470     1.0  0.83605  0.35983  0.23763  1.0000
  O   O2471     1.0  0.80183  0.37677  0.25765  1.0000
  O   O2472     1.0  0.80612  0.33640  0.25742  1.0000
  C   C825      1.0  0.98774  0.71659  0.69183  1.0000
  O   O2473     1.0  0.00081  0.73616  0.69511  1.0000
  O   O2474     1.0  0.98142  0.70944  0.66580  1.0000
  O   O2475     1.0  0.98116  0.70405  0.71457  1.0000
  C   C826      1.0  0.93582  0.18187  0.38413  1.0000
  O   O2476     1.0  0.91302  0.17376  0.38533  1.0000
  O   O2477     1.0  0.95442  0.16787  0.39099  1.0000
  O   O2478     1.0  0.94001  0.20401  0.37624  1.0000
  C   C827      1.0  0.38916  0.15460  0.00105  1.0000
  O   O2479     1.0  0.39737  0.17638  0.00536  1.0000
  O   O2480     1.0  0.40479  0.13733  0.99512  1.0000
  O   O2481     1.0  0.36531  0.15015  0.00241  1.0000
  C   C828      1.0  0.27259  0.88775  0.21284  1.0000
  O   O2482     1.0  0.29142  0.87329  0.21687  1.0000
  O   O2483     1.0  0.27610  0.90871  0.20081  1.0000
  O   O2484     1.0  0.25022  0.88117  0.22063  1.0000
  C   C829      1.0  0.84434  0.04515  0.51753  1.0000
  O   O2485     1.0  0.83744  0.05258  0.54325  1.0000
  O   O2486     1.0  0.82788  0.03631  0.49957  1.0000
  O   O2487     1.0  0.86765  0.04676  0.50969  1.0000
  C   C830      1.0  0.02763  0.34767  0.74041  1.0000
  O   O2488     1.0  0.03572  0.33689  0.76379  1.0000
  O   O2489     1.0  0.04096  0.34738  0.71665  1.0000
  O   O2490     1.0  0.00610  0.35858  0.74071  1.0000
  C   C831      1.0  0.29904  0.11532  0.94524  1.0000
  O   O2491     1.0  0.31744  0.12918  0.93729  1.0000
  O   O2492     1.0  0.29190  0.11490  0.97239  1.0000
  O   O2493     1.0  0.28792  0.10174  0.92607  1.0000
  C   C832      1.0  0.36161  0.86317  0.26990  1.0000
  O   O2494     1.0  0.38086  0.84945  0.26496  1.0000
  O   O2495     1.0  0.34510  0.86668  0.24947  1.0000
  O   O2496     1.0  0.35898  0.87356  0.29518  1.0000
  C   C833      1.0  0.47504  0.66868  0.08300  1.0000
  O   O2497     1.0  0.47199  0.65340  0.10424  1.0000
  O   O2498     1.0  0.46847  0.66287  0.05657  1.0000
  O   O2499     1.0  0.48456  0.68981  0.08822  1.0000
  C   C834      1.0  0.53739  0.79956  0.53664  1.0000
  O   O2500     1.0  0.52023  0.78323  0.53299  1.0000
  O   O2501     1.0  0.55144  0.79914  0.55983  1.0000
  O   O2502     1.0  0.54035  0.81644  0.51724  1.0000
  C   C835      1.0  0.74001  0.48120  0.18163  1.0000
  O   O2503     1.0  0.72359  0.48755  0.16213  1.0000
  O   O2504     1.0  0.73289  0.46987  0.20507  1.0000
  O   O2505     1.0  0.76356  0.48597  0.17755  1.0000
  C   C836      1.0  0.39150  0.31195  0.14820  1.0000
  O   O2506     1.0  0.40492  0.31577  0.17144  1.0000
  O   O2507     1.0  0.38289  0.33006  0.13324  1.0000
  O   O2508     1.0  0.38664  0.29002  0.13997  1.0000
  C   C837      1.0  0.30037  0.03794  0.88727  1.0000
  O   O2509     1.0  0.32033  0.03699  0.90346  1.0000
  O   O2510     1.0  0.29552  0.05723  0.87216  1.0000
  O   O2511     1.0  0.28529  0.01958  0.88614  1.0000
  C   C838      1.0  0.71130  0.90605  0.49894  1.0000
  O   O2512     1.0  0.71028  0.88948  0.47888  1.0000
  O   O2513     1.0  0.69530  0.90590  0.52034  1.0000
  O   O2514     1.0  0.72831  0.92276  0.49760  1.0000
  C   C839      1.0  0.82688  0.49063  0.82018  1.0000
  O   O2515     1.0  0.83385  0.49469  0.84695  1.0000
  O   O2516     1.0  0.81833  0.50819  0.80423  1.0000
  O   O2517     1.0  0.82865  0.46906  0.80928  1.0000
  C   C840      1.0  0.83078  0.91225  0.48918  1.0000
  O   O2518     1.0  0.85413  0.91623  0.49547  1.0000
  O   O2519     1.0  0.81485  0.92996  0.48921  1.0000
  O   O2520     1.0  0.82334  0.89056  0.48286  1.0000
  C   C841      1.0  0.73787  0.50442  0.99592  1.0000
  O   O2521     1.0  0.75110  0.48903  0.01075  1.0000
  O   O2522     1.0  0.71358  0.50333  0.99661  1.0000
  O   O2523     1.0  0.74892  0.52094  0.98044  1.0000
  C   C842      1.0  0.84173  0.03287  0.69755  1.0000
  O   O2524     1.0  0.82408  0.01716  0.69293  1.0000
  O   O2525     1.0  0.83619  0.05413  0.70767  1.0000
  O   O2526     1.0  0.86487  0.02742  0.69169  1.0000
  C   C843      1.0  0.10218  0.12823  0.17829  1.0000
  O   O2527     1.0  0.08608  0.12151  0.19797  1.0000
  O   O2528     1.0  0.10467  0.11585  0.15434  1.0000
  O   O2529     1.0  0.11561  0.14747  0.18242  1.0000
  C   C844      1.0  0.65298  0.49924  0.64259  1.0000
  O   O2530     1.0  0.64769  0.49568  0.61520  1.0000
  O   O2531     1.0  0.67440  0.49220  0.65302  1.0000
  O   O2532     1.0  0.63677  0.50963  0.65962  1.0000
  C   C845      1.0  0.84633  0.90334  0.93054  1.0000
  O   O2533     1.0  0.85008  0.90332  0.95861  1.0000
  O   O2534     1.0  0.84904  0.92315  0.91570  1.0000
  O   O2535     1.0  0.84010  0.88351  0.91727  1.0000
  C   C846      1.0  0.14230  0.24691  0.87620  1.0000
  O   O2536     1.0  0.16241  0.26005  0.87729  1.0000
  O   O2537     1.0  0.12058  0.25660  0.88127  1.0000
  O   O2538     1.0  0.14393  0.22404  0.87033  1.0000
  C   C847      1.0  0.37036  0.93863  0.34864  1.0000
  O   O2539     1.0  0.36899  0.92091  0.33012  1.0000
  O   O2540     1.0  0.36149  0.95968  0.34171  1.0000
  O   O2541     1.0  0.38039  0.93523  0.37419  1.0000
  C   C848      1.0  0.75878  0.85865  0.53237  1.0000
  O   O2542     1.0  0.73653  0.86658  0.52614  1.0000
  O   O2543     1.0  0.76818  0.84071  0.51776  1.0000
  O   O2544     1.0  0.77164  0.86866  0.55321  1.0000
  C   C849      1.0  0.54479  0.09853  0.10823  1.0000
  O   O2545     1.0  0.53313  0.07848  0.10265  1.0000
  O   O2546     1.0  0.54345  0.11641  0.08993  1.0000
  O   O2547     1.0  0.55796  0.10063  0.13198  1.0000
  C   C850      1.0  0.58517  0.24364  0.17231  1.0000
  O   O2548     1.0  0.57112  0.22837  0.18629  1.0000
  O   O2549     1.0  0.60911  0.24423  0.17721  1.0000
  O   O2550     1.0  0.57525  0.25839  0.15352  1.0000
  C   C851      1.0  0.39557  0.31140  0.88454  1.0000
  O   O2551     1.0  0.40991  0.30251  0.86428  1.0000
  O   O2552     1.0  0.37279  0.31781  0.87831  1.0000
  O   O2553     1.0  0.40396  0.31378  0.91104  1.0000
  C   C852      1.0  0.76682  0.02168  0.93867  1.0000
  O   O2554     1.0  0.77135  0.04323  0.94851  1.0000
  O   O2555     1.0  0.78492  0.00616  0.93626  1.0000
  O   O2556     1.0  0.74419  0.01566  0.93126  1.0000
  C   C853      1.0  0.27592  0.43194  0.17581  1.0000
  O   O2557     1.0  0.28179  0.42379  0.20154  1.0000
  O   O2558     1.0  0.29235  0.44373  0.16049  1.0000
  O   O2559     1.0  0.25368  0.42812  0.16527  1.0000
  C   C854      1.0  0.91150  0.56929  0.46117  1.0000
  O   O2560     1.0  0.92984  0.55425  0.45726  1.0000
  O   O2561     1.0  0.89979  0.57824  0.43876  1.0000
  O   O2562     1.0  0.90489  0.57542  0.48748  1.0000
  C   C855      1.0  0.11755  0.22429  0.93744  1.0000
  O   O2563     1.0  0.14169  0.22715  0.93758  1.0000
  O   O2564     1.0  0.10290  0.24297  0.93859  1.0000
  O   O2565     1.0  0.10806  0.20273  0.93644  1.0000
  C   C856      1.0  0.01915  0.31912  0.27496  1.0000
  O   O2566     1.0  0.01606  0.32613  0.30182  1.0000
  O   O2567     1.0  0.02666  0.33438  0.25526  1.0000
  O   O2568     1.0  0.01497  0.29679  0.26784  1.0000
  C   C857      1.0  0.81569  0.77452  0.62393  1.0000
  O   O2569     1.0  0.82610  0.79239  0.61015  1.0000
  O   O2570     1.0  0.82780  0.75439  0.62734  1.0000
  O   O2571     1.0  0.79325  0.77685  0.63453  1.0000
  C   C858      1.0  0.19062  0.72205  0.11867  1.0000
  O   O2572     1.0  0.20595  0.72696  0.09744  1.0000
  O   O2573     1.0  0.18649  0.73792  0.13901  1.0000
  O   O2574     1.0  0.17926  0.70134  0.11944  1.0000
  C   C859      1.0  0.91098  0.51388  0.39735  1.0000
  O   O2575     1.0  0.92410  0.53360  0.39644  1.0000
  O   O2576     1.0  0.91528  0.49794  0.41755  1.0000
  O   O2577     1.0  0.89373  0.51001  0.37788  1.0000
  C   C860      1.0  0.82188  0.71456  0.71958  1.0000
  O   O2578     1.0  0.83918  0.69888  0.72569  1.0000
  O   O2579     1.0  0.82392  0.73662  0.72888  1.0000
  O   O2580     1.0  0.80264  0.70823  0.70400  1.0000
  C   C861      1.0  0.10369  0.47812  0.98902  1.0000
  O   O2581     1.0  0.08989  0.49174  0.97244  1.0000
  O   O2582     1.0  0.09340  0.46135  0.00480  1.0000
  O   O2583     1.0  0.12776  0.48142  0.99000  1.0000
  C   C862      1.0  0.05541  0.35412  0.48583  1.0000
  O   O2584     1.0  0.07878  0.34780  0.48416  1.0000
  O   O2585     1.0  0.04831  0.37499  0.47594  1.0000
  O   O2586     1.0  0.03917  0.33966  0.49766  1.0000
  C   C863      1.0  0.45662  0.98968  0.60707  1.0000
  O   O2587     1.0  0.46315  0.00480  0.58675  1.0000
  O   O2588     1.0  0.43320  0.98750  0.61427  1.0000
  O   O2589     1.0  0.47349  0.97665  0.62007  1.0000
  C   C864      1.0  0.21145  0.23421  0.02419  1.0000
  O   O2590     1.0  0.19502  0.24652  0.00950  1.0000
  O   O2591     1.0  0.21019  0.23337  0.05254  1.0000
  O   O2592     1.0  0.22904  0.22260  0.01052  1.0000
  C   C865      1.0  0.30482  0.91452  0.27964  1.0000
  O   O2593     1.0  0.30533  0.89155  0.28524  1.0000
  O   O2594     1.0  0.29185  0.92256  0.25767  1.0000
  O   O2595     1.0  0.31690  0.92949  0.29633  1.0000
  C   C866      1.0  0.80006  0.74100  0.92090  1.0000
  O   O2596     1.0  0.81762  0.74954  0.93762  1.0000
  O   O2597     1.0  0.79055  0.75434  0.90037  1.0000
  O   O2598     1.0  0.79202  0.71911  0.92473  1.0000
  C   C867      1.0  0.09798  0.39445  0.78743  1.0000
  O   O2599     1.0  0.12182  0.39776  0.79135  1.0000
  O   O2600     1.0  0.08203  0.40295  0.80625  1.0000
  O   O2601     1.0  0.09009  0.38247  0.76482  1.0000
  C   C868      1.0  0.65890  0.21429  0.79641  1.0000
  O   O2602     1.0  0.67524  0.22722  0.81045  1.0000
  O   O2603     1.0  0.64785  0.19640  0.80944  1.0000
  O   O2604     1.0  0.65344  0.21940  0.76943  1.0000
  C   C869      1.0  0.46676  0.64496  0.17306  1.0000
  O   O2605     1.0  0.49026  0.64665  0.18010  1.0000
  O   O2606     1.0  0.45474  0.66385  0.16382  1.0000
  O   O2607     1.0  0.45525  0.62441  0.17542  1.0000
  C   C870      1.0  0.91861  0.96462  0.77679  1.0000
  O   O2608     1.0  0.94186  0.96045  0.78344  1.0000
  O   O2609     1.0  0.91317  0.97964  0.75593  1.0000
  O   O2610     1.0  0.90082  0.95366  0.79088  1.0000
  C   C871      1.0  0.69159  0.29900  0.08336  1.0000
  O   O2611     1.0  0.71286  0.30878  0.09038  1.0000
  O   O2612     1.0  0.67110  0.30612  0.09599  1.0000
  O   O2613     1.0  0.69079  0.28223  0.06353  1.0000
  C   C872      1.0  0.65012  0.79865  0.90219  1.0000
  O   O2614     1.0  0.66010  0.80773  0.87873  1.0000
  O   O2615     1.0  0.63008  0.78547  0.90025  1.0000
  O   O2616     1.0  0.66003  0.80294  0.92760  1.0000
  C   C873      1.0  0.06081  0.02769  0.41836  1.0000
  O   O2617     1.0  0.05605  0.05064  0.41700  1.0000
  O   O2618     1.0  0.05339  0.01520  0.44078  1.0000
  O   O2619     1.0  0.07300  0.01723  0.39730  1.0000
  C   C874      1.0  0.38345  0.03320  0.65000  1.0000
  O   O2620     1.0  0.38117  0.02420  0.62390  1.0000
  O   O2621     1.0  0.39917  0.02373  0.66839  1.0000
  O   O2622     1.0  0.36996  0.05163  0.65772  1.0000
  C   C875      1.0  0.85635  0.40393  0.71378  1.0000
  O   O2623     1.0  0.83970  0.39569  0.73192  1.0000
  O   O2624     1.0  0.85289  0.40179  0.68578  1.0000
  O   O2625     1.0  0.87652  0.41419  0.72364  1.0000
  C   C876      1.0  0.06573  0.16386  0.17428  1.0000
  O   O2626     1.0  0.08132  0.18091  0.16733  1.0000
  O   O2627     1.0  0.05685  0.14972  0.15415  1.0000
  O   O2628     1.0  0.05901  0.16097  0.20136  1.0000
  C   C877      1.0  0.29216  0.75464  0.16648  1.0000
  O   O2629     1.0  0.29561  0.73370  0.17859  1.0000
  O   O2630     1.0  0.28560  0.77300  0.18238  1.0000
  O   O2631     1.0  0.29527  0.75721  0.13848  1.0000
  C   C878      1.0  0.97076  0.45192  0.62563  1.0000
  O   O2632     1.0  0.97574  0.46163  0.60044  1.0000
  O   O2633     1.0  0.98835  0.44955  0.64505  1.0000
  O   O2634     1.0  0.94826  0.44437  0.63131  1.0000
  C   C879      1.0  0.32619  0.46080  0.51970  1.0000
  O   O2635     1.0  0.33557  0.46908  0.49549  1.0000
  O   O2636     1.0  0.30330  0.46606  0.52691  1.0000
  O   O2637     1.0  0.33976  0.44744  0.53683  1.0000
  C   C880      1.0  0.14518  0.86701  0.88949  1.0000
  O   O2638     1.0  0.16406  0.88170  0.89130  1.0000
  O   O2639     1.0  0.12355  0.87324  0.90006  1.0000
  O   O2640     1.0  0.14799  0.84600  0.87735  1.0000
  C   C881      1.0  0.77376  0.04143  0.87994  1.0000
  O   O2641     1.0  0.79497  0.03910  0.89356  1.0000
  O   O2642     1.0  0.76457  0.06277  0.87520  1.0000
  O   O2643     1.0  0.76164  0.02241  0.87127  1.0000
  C   C882      1.0  0.04421  0.52157  0.40058  1.0000
  O   O2644     1.0  0.06635  0.51506  0.39186  1.0000
  O   O2645     1.0  0.03938  0.54420  0.40529  1.0000
  O   O2646     1.0  0.02697  0.50542  0.40485  1.0000
  C   C883      1.0  0.80542  0.58323  0.77651  1.0000
  O   O2647     1.0  0.82294  0.58951  0.75834  1.0000
  O   O2648     1.0  0.78278  0.59132  0.77303  1.0000
  O   O2649     1.0  0.81052  0.56885  0.79813  1.0000
  C   C884      1.0  0.62557  0.92828  0.87621  1.0000
  O   O2650     1.0  0.63997  0.90945  0.87452  1.0000
  O   O2651     1.0  0.60664  0.93051  0.85859  1.0000
  O   O2652     1.0  0.63021  0.94498  0.89539  1.0000
  C   C885      1.0  0.02014  0.53762  0.67402  1.0000
  O   O2653     1.0  0.04145  0.53616  0.68760  1.0000
  O   O2654     1.0  0.01950  0.54392  0.64667  1.0000
  O   O2655     1.0  0.99947  0.53284  0.68782  1.0000
  C   C886      1.0  0.74574  0.80587  0.85182  1.0000
  O   O2656     1.0  0.74219  0.78817  0.83366  1.0000
  O   O2657     1.0  0.76701  0.80797  0.86536  1.0000
  O   O2658     1.0  0.72796  0.82136  0.85660  1.0000
  C   C887      1.0  0.70114  0.73016  0.38032  1.0000
  O   O2659     1.0  0.71872  0.72700  0.36107  1.0000
  O   O2660     1.0  0.70173  0.74880  0.39753  1.0000
  O   O2661     1.0  0.68307  0.71458  0.38252  1.0000
  C   C888      1.0  0.04687  0.50477  0.03994  1.0000
  O   O2662     1.0  0.03002  0.50829  0.01990  1.0000
  O   O2663     1.0  0.07047  0.50676  0.03351  1.0000
  O   O2664     1.0  0.04012  0.49929  0.06641  1.0000
  C   C889      1.0  0.23138  0.99870  0.84429  1.0000
  O   O2665     1.0  0.23709  0.97601  0.84191  1.0000
  O   O2666     1.0  0.24898  0.01471  0.84709  1.0000
  O   O2667     1.0  0.20806  0.00537  0.84412  1.0000
  C   C890      1.0  0.76651  0.46873  0.82752  1.0000
  O   O2668     1.0  0.76624  0.47603  0.80052  1.0000
  O   O2669     1.0  0.78677  0.47085  0.84303  1.0000
  O   O2670     1.0  0.74648  0.45946  0.83906  1.0000
  C   C891      1.0  0.83383  0.64023  0.27172  1.0000
  O   O2671     1.0  0.84792  0.65887  0.26666  1.0000
  O   O2672     1.0  0.82347  0.62878  0.25009  1.0000
  O   O2673     1.0  0.83029  0.63291  0.29839  1.0000
  C   C892      1.0  0.77785  0.56133  0.61486  1.0000
  O   O2674     1.0  0.78666  0.58316  0.61568  1.0000
  O   O2675     1.0  0.78745  0.54473  0.63149  1.0000
  O   O2676     1.0  0.75958  0.55604  0.59723  1.0000
  C   C893      1.0  0.41348  0.39690  0.87791  1.0000
  O   O2677     1.0  0.42163  0.40397  0.90326  1.0000
  O   O2678     1.0  0.39009  0.39992  0.87101  1.0000
  O   O2679     1.0  0.42866  0.38662  0.85955  1.0000
  C   C894      1.0  0.42180  0.12572  0.89469  1.0000
  O   O2680     1.0  0.41479  0.12962  0.92148  1.0000
  O   O2681     1.0  0.41400  0.13975  0.87383  1.0000
  O   O2682     1.0  0.43674  0.10788  0.88878  1.0000
  C   C895      1.0  0.63961  0.53992  0.76135  1.0000
  O   O2683     1.0  0.63620  0.51775  0.76964  1.0000
  O   O2684     1.0  0.64363  0.55666  0.78067  1.0000
  O   O2685     1.0  0.63897  0.54536  0.73372  1.0000
  C   C896      1.0  0.84508  0.07153  0.63913  1.0000
  O   O2686     1.0  0.86313  0.08035  0.65489  1.0000
  O   O2687     1.0  0.83212  0.08561  0.62221  1.0000
  O   O2688     1.0  0.83986  0.04868  0.64050  1.0000
  C   C897      1.0  0.89439  0.12469  0.84307  1.0000
  O   O2689     1.0  0.88801  0.11130  0.82098  1.0000
  O   O2690     1.0  0.91534  0.12069  0.85664  1.0000
  O   O2691     1.0  0.87992  0.14223  0.85141  1.0000
  C   C898      1.0  0.68336  0.86036  0.92568  1.0000
  O   O2692     1.0  0.70487  0.85469  0.91434  1.0000
  O   O2693     1.0  0.66773  0.87366  0.91105  1.0000
  O   O2694     1.0  0.67740  0.85259  0.95157  1.0000
  C   C899      1.0  0.15186  0.72545  0.35362  1.0000
  O   O2695     1.0  0.17252  0.71824  0.36581  1.0000
  O   O2696     1.0  0.13063  0.72240  0.36697  1.0000
  O   O2697     1.0  0.15242  0.73551  0.32797  1.0000
  C   C900      1.0  0.57595  0.51764  0.32449  1.0000
  O   O2698     1.0  0.59232  0.53497  0.32436  1.0000
  O   O2699     1.0  0.58327  0.49537  0.32225  1.0000
  O   O2700     1.0  0.55228  0.52257  0.32705  1.0000
  C   C901      1.0  0.69184  0.64038  0.06588  1.0000
  O   O2701     1.0  0.71403  0.63740  0.05481  1.0000
  O   O2702     1.0  0.68821  0.63708  0.09369  1.0000
  O   O2703     1.0  0.67325  0.64644  0.04911  1.0000
  C   C902      1.0  0.04493  0.40295  0.29558  1.0000
  O   O2704     1.0  0.05875  0.41923  0.28307  1.0000
  O   O2705     1.0  0.02647  0.39319  0.28136  1.0000
  O   O2706     1.0  0.04972  0.39625  0.32223  1.0000
  C   C903      1.0  0.88637  0.43844  0.44986  1.0000
  O   O2707     1.0  0.90897  0.44691  0.45206  1.0000
  O   O2708     1.0  0.88109  0.42263  0.42982  1.0000
  O   O2709     1.0  0.86905  0.44578  0.46771  1.0000
  C   C904      1.0  0.39143  0.40342  0.07384  1.0000
  O   O2710     1.0  0.37038  0.41025  0.08541  1.0000
  O   O2711     1.0  0.39830  0.41195  0.04862  1.0000
  O   O2712     1.0  0.40566  0.38814  0.08754  1.0000
  C   C905      1.0  0.07978  0.61367  0.11717  1.0000
  O   O2713     1.0  0.09371  0.61587  0.09403  1.0000
  O   O2714     1.0  0.05966  0.60053  0.11626  1.0000
  O   O2715     1.0  0.08585  0.62481  0.14115  1.0000
  C   C906      1.0  0.18523  0.95946  0.98449  1.0000
  O   O2716     1.0  0.17118  0.94491  0.99955  1.0000
  O   O2717     1.0  0.18788  0.98174  0.99270  1.0000
  O   O2718     1.0  0.19666  0.95170  0.96124  1.0000
  C   C907      1.0  0.02886  0.70626  0.40875  1.0000
  O   O2719     1.0  0.02181  0.68481  0.40081  1.0000
  O   O2720     1.0  0.02637  0.72432  0.39089  1.0000
  O   O2721     1.0  0.03820  0.70968  0.43466  1.0000
  C   C908      1.0  0.44191  0.04952  0.26537  1.0000
  O   O2722     1.0  0.46512  0.05645  0.26657  1.0000
  O   O2723     1.0  0.42863  0.05391  0.24217  1.0000
  O   O2724     1.0  0.43193  0.03831  0.28744  1.0000
  C   C909      1.0  0.69322  0.65321  0.52598  1.0000
  O   O2725     1.0  0.70997  0.67016  0.52748  1.0000
  O   O2726     1.0  0.68002  0.65055  0.50233  1.0000
  O   O2727     1.0  0.68962  0.63897  0.54814  1.0000
  C   C910      1.0  0.66411  0.55420  0.62527  1.0000
  O   O2728     1.0  0.68566  0.55523  0.63840  1.0000
  O   O2729     1.0  0.64419  0.56238  0.63820  1.0000
  O   O2730     1.0  0.66246  0.54479  0.59933  1.0000
  C   C911      1.0  0.54395  0.22583  0.48256  1.0000
  O   O2731     1.0  0.55744  0.21199  0.49922  1.0000
  O   O2732     1.0  0.53661  0.24677  0.49201  1.0000
  O   O2733     1.0  0.53781  0.21873  0.45646  1.0000
  C   C912      1.0  0.90333  0.44883  0.55371  1.0000
  O   O2734     1.0  0.92305  0.45867  0.56532  1.0000
  O   O2735     1.0  0.90431  0.44032  0.52727  1.0000
  O   O2736     1.0  0.88257  0.44772  0.56845  1.0000
  C   C913      1.0  0.12960  0.13117  0.90437  1.0000
  O   O2737     1.0  0.12932  0.15139  0.91873  1.0000
  O   O2738     1.0  0.13169  0.13130  0.87606  1.0000
  O   O2739     1.0  0.12762  0.11084  0.91829  1.0000
  C   C914      1.0  0.85343  0.81224  0.32807  1.0000
  O   O2740     1.0  0.83887  0.82294  0.30938  1.0000
  O   O2741     1.0  0.87752  0.81236  0.32415  1.0000
  O   O2742     1.0  0.84390  0.80140  0.35066  1.0000
  C   C915      1.0  0.94101  0.50847  0.63080  1.0000
  O   O2743     1.0  0.94983  0.49853  0.65437  1.0000
  O   O2744     1.0  0.93918  0.53180  0.62908  1.0000
  O   O2745     1.0  0.93380  0.49508  0.60906  1.0000
  C   C916      1.0  0.83884  0.48098  0.33501  1.0000
  O   O2746     1.0  0.84868  0.50120  0.34361  1.0000
  O   O2747     1.0  0.81753  0.48099  0.32131  1.0000
  O   O2748     1.0  0.85028  0.46074  0.34015  1.0000
  C   C917      1.0  0.05892  0.80384  0.15461  1.0000
  O   O2749     1.0  0.04703  0.78825  0.17065  1.0000
  O   O2750     1.0  0.05334  0.80614  0.12710  1.0000
  O   O2751     1.0  0.07655  0.81695  0.16602  1.0000
  C   C918      1.0  0.48136  0.88059  0.61146  1.0000
  O   O2752     1.0  0.50122  0.88730  0.62570  1.0000
  O   O2753     1.0  0.46649  0.89668  0.60027  1.0000
  O   O2754     1.0  0.47636  0.85779  0.60840  1.0000
  C   C919      1.0  0.85021  0.76720  0.39357  1.0000
  O   O2755     1.0  0.85936  0.78318  0.41139  1.0000
  O   O2756     1.0  0.82639  0.76704  0.38783  1.0000
  O   O2757     1.0  0.86488  0.75139  0.38148  1.0000
  C   C920      1.0  0.75785  0.86129  0.12755  1.0000
  O   O2758     1.0  0.76307  0.86777  0.10094  1.0000
  O   O2759     1.0  0.74342  0.87469  0.14365  1.0000
  O   O2760     1.0  0.76696  0.84135  0.13802  1.0000
  C   C921      1.0  0.11917  0.45986  0.85711  1.0000
  O   O2761     1.0  0.12330  0.44265  0.83844  1.0000
  O   O2762     1.0  0.10037  0.45838  0.87505  1.0000
  O   O2763     1.0  0.13373  0.47862  0.85769  1.0000
  C   C922      1.0  0.85157  0.86332  0.60788  1.0000
  O   O2764     1.0  0.86868  0.87974  0.61126  1.0000
  O   O2765     1.0  0.82806  0.86906  0.60993  1.0000
  O   O2766     1.0  0.85797  0.84113  0.60266  1.0000
  C   C923      1.0  0.71449  0.99630  0.41344  1.0000
  O   O2767     1.0  0.72231  0.97557  0.42304  1.0000
  O   O2768     1.0  0.72622  0.00695  0.39217  1.0000
  O   O2769     1.0  0.69498  0.00641  0.42517  1.0000
  C   C924      1.0  0.10181  0.34599  0.81011  1.0000
  O   O2770     1.0  0.12550  0.34561  0.81655  1.0000
  O   O2771     1.0  0.09357  0.33391  0.78776  1.0000
  O   O2772     1.0  0.08641  0.35864  0.82587  1.0000
  C   C925      1.0  0.58423  0.44719  0.46785  1.0000
  O   O2773     1.0  0.60276  0.43256  0.47279  1.0000
  O   O2774     1.0  0.58369  0.46821  0.48040  1.0000
  O   O2775     1.0  0.56628  0.44083  0.45030  1.0000
  C   C926      1.0  0.83817  0.63925  0.15438  1.0000
  O   O2776     1.0  0.84968  0.62405  0.13743  1.0000
  O   O2777     1.0  0.83302  0.63334  0.18120  1.0000
  O   O2778     1.0  0.83162  0.66027  0.14442  1.0000
  C   C927      1.0  0.80839  0.36743  0.07614  1.0000
  O   O2779     1.0  0.78882  0.36004  0.06184  1.0000
  O   O2780     1.0  0.83049  0.36557  0.06451  1.0000
  O   O2781     1.0  0.80582  0.37690  0.10196  1.0000
  C   C928      1.0  0.15232  0.89731  0.39842  1.0000
  O   O2782     1.0  0.13108  0.88995  0.40900  1.0000
  O   O2783     1.0  0.15288  0.91519  0.38007  1.0000
  O   O2784     1.0  0.17302  0.88683  0.40626  1.0000
  C   C929      1.0  0.67957  0.33736  0.87901  1.0000
  O   O2785     1.0  0.69712  0.32325  0.86931  1.0000
  O   O2786     1.0  0.68419  0.36008  0.88343  1.0000
  O   O2787     1.0  0.65734  0.32881  0.88402  1.0000
  C   C930      1.0  0.93421  0.76496  0.35902  1.0000
  O   O2788     1.0  0.95723  0.76033  0.35177  1.0000
  O   O2789     1.0  0.92673  0.78717  0.36141  1.0000
  O   O2790     1.0  0.91874  0.74739  0.36415  1.0000
  C   C931      1.0  0.91814  0.38609  0.79855  1.0000
  O   O2791     1.0  0.93888  0.37394  0.80030  1.0000
  O   O2792     1.0  0.91849  0.40838  0.78979  1.0000
  O   O2793     1.0  0.89702  0.37588  0.80529  1.0000
  C   C932      1.0  0.67403  0.05472  0.84271  1.0000
  O   O2794     1.0  0.67868  0.04515  0.86807  1.0000
  O   O2795     1.0  0.68477  0.07483  0.83527  1.0000
  O   O2796     1.0  0.65847  0.04430  0.82490  1.0000
  C   C933      1.0  0.04186  0.12714  0.79753  1.0000
  O   O2797     1.0  0.06024  0.14011  0.78760  1.0000
  O   O2798     1.0  0.02171  0.13753  0.80724  1.0000
  O   O2799     1.0  0.04358  0.10376  0.79760  1.0000
  C   C934      1.0  0.65415  0.40304  0.52891  1.0000
  O   O2800     1.0  0.63759  0.40011  0.50840  1.0000
  O   O2801     1.0  0.65815  0.38594  0.54777  1.0000
  O   O2802     1.0  0.66653  0.42315  0.53073  1.0000
  C   C935      1.0  0.91083  0.18439  0.48923  1.0000
  O   O2803     1.0  0.92822  0.19820  0.47857  1.0000
  O   O2804     1.0  0.90240  0.18814  0.51549  1.0000
  O   O2805     1.0  0.90202  0.16668  0.47372  1.0000
  C   C936      1.0  0.48496  0.47676  0.10046  1.0000
  O   O2806     1.0  0.47600  0.46122  0.11896  1.0000
  O   O2807     1.0  0.50828  0.48327  0.10209  1.0000
  O   O2808     1.0  0.47066  0.48562  0.08014  1.0000
  C   C937      1.0  0.48909  0.43095  0.58440  1.0000
  O   O2809     1.0  0.49022  0.44380  0.60812  1.0000
  O   O2810     1.0  0.49908  0.40959  0.58375  1.0000
  O   O2811     1.0  0.47781  0.43938  0.56141  1.0000
  C   C938      1.0  0.68935  0.35127  0.67687  1.0000
  O   O2812     1.0  0.68857  0.35403  0.70507  1.0000
  O   O2813     1.0  0.67045  0.35789  0.66089  1.0000
  O   O2814     1.0  0.70893  0.34169  0.66468  1.0000
  C   C939      1.0  0.46670  0.79405  0.39095  1.0000
  O   O2815     1.0  0.46752  0.81013  0.37030  1.0000
  O   O2816     1.0  0.44525  0.78606  0.40019  1.0000
  O   O2817     1.0  0.48733  0.78616  0.40257  1.0000
  C   C940      1.0  0.70927  0.85271  0.01493  1.0000
  O   O2818     1.0  0.73308  0.84863  0.01794  1.0000
  O   O2819     1.0  0.70061  0.87449  0.01767  1.0000
  O   O2820     1.0  0.69411  0.83500  0.00919  1.0000
  C   C941      1.0  0.62575  0.69157  0.95689  1.0000
  O   O2821     1.0  0.64370  0.68922  0.97586  1.0000
  O   O2822     1.0  0.62994  0.70240  0.93218  1.0000
  O   O2823     1.0  0.60368  0.68289  0.96253  1.0000
  C   C942      1.0  0.23677  0.13500  0.97889  1.0000
  O   O2824     1.0  0.25298  0.15085  0.98778  1.0000
  O   O2825     1.0  0.21499  0.14194  0.96947  1.0000
  O   O2826     1.0  0.24226  0.11218  0.97969  1.0000
  C   C943      1.0  0.63158  0.58886  0.56609  1.0000
  O   O2827     1.0  0.62043  0.56900  0.55847  1.0000
  O   O2828     1.0  0.62031  0.60410  0.58319  1.0000
  O   O2829     1.0  0.65390  0.59360  0.55637  1.0000
  C   C944      1.0  0.06233  0.50395  0.76845  1.0000
  O   O2830     1.0  0.08548  0.49703  0.76606  1.0000
  O   O2831     1.0  0.05347  0.52024  0.75085  1.0000
  O   O2832     1.0  0.04806  0.49460  0.78847  1.0000
  C   C945      1.0  0.63092  0.83391  0.31858  1.0000
  O   O2833     1.0  0.61492  0.82441  0.33661  1.0000
  O   O2834     1.0  0.64101  0.85467  0.32449  1.0000
  O   O2835     1.0  0.63699  0.82256  0.29476  1.0000
  C   C946      1.0  0.84541  0.66376  0.58895  1.0000
  O   O2836     1.0  0.85520  0.66359  0.61496  1.0000
  O   O2837     1.0  0.82131  0.66204  0.58580  1.0000
  O   O2838     1.0  0.85974  0.66540  0.56609  1.0000
  C   C947      1.0  0.35134  0.69844  0.53139  1.0000
  O   O2839     1.0  0.35874  0.68181  0.51333  1.0000
  O   O2840     1.0  0.36671  0.70690  0.55087  1.0000
  O   O2841     1.0  0.32863  0.70671  0.52985  1.0000
  C   C948      1.0  0.86608  0.98378  0.52807  1.0000
  O   O2842     1.0  0.88401  0.98676  0.50921  1.0000
  O   O2843     1.0  0.86526  0.99704  0.55147  1.0000
  O   O2844     1.0  0.84913  0.96737  0.52367  1.0000
  C   C949      1.0  0.68975  0.13332  0.58637  1.0000
  O   O2845     1.0  0.68834  0.15652  0.59006  1.0000
  O   O2846     1.0  0.67375  0.11919  0.59919  1.0000
  O   O2847     1.0  0.70730  0.12425  0.57007  1.0000
  C   C950      1.0  0.67609  0.91146  0.94287  1.0000
  O   O2848     1.0  0.65371  0.91055  0.95393  1.0000
  O   O2849     1.0  0.67991  0.92262  0.91829  1.0000
  O   O2850     1.0  0.69466  0.90127  0.95643  1.0000
  C   C951      1.0  0.98199  0.58501  0.68676  1.0000
  O   O2851     1.0  0.97226  0.57334  0.66490  1.0000
  O   O2852     1.0  0.00416  0.57934  0.69619  1.0000
  O   O2853     1.0  0.96946  0.60220  0.69935  1.0000
  C   C952      1.0  0.27734  0.76213  0.60891  1.0000
  O   O2854     1.0  0.30071  0.75693  0.61363  1.0000
  O   O2855     1.0  0.27109  0.78371  0.60060  1.0000
  O   O2856     1.0  0.26024  0.74572  0.61237  1.0000
  C   C953      1.0  0.33416  0.50345  0.76746  1.0000
  O   O2857     1.0  0.35491  0.49402  0.77691  1.0000
  O   O2858     1.0  0.33317  0.52630  0.76124  1.0000
  O   O2859     1.0  0.31447  0.49000  0.76399  1.0000
  C   C954      1.0  0.50389  0.24852  0.01564  1.0000
  O   O2860     1.0  0.51377  0.25323  0.04097  1.0000
  O   O2861     1.0  0.49850  0.26600  0.99780  1.0000
  O   O2862     1.0  0.49950  0.22633  0.00811  1.0000
  C   C955      1.0  0.74762  0.49778  0.61305  1.0000
  O   O2863     1.0  0.76822  0.49574  0.59815  1.0000
  O   O2864     1.0  0.74762  0.49351  0.64098  1.0000
  O   O2865     1.0  0.72702  0.50406  0.60001  1.0000
  C   C956      1.0  0.68716  0.45029  0.90415  1.0000
  O   O2866     1.0  0.68451  0.47134  0.91623  1.0000
  O   O2867     1.0  0.69964  0.44818  0.87989  1.0000
  O   O2868     1.0  0.67716  0.43137  0.91618  1.0000
  C   C957      1.0  0.54240  0.04529  0.93642  1.0000
  O   O2869     1.0  0.55127  0.04942  0.91044  1.0000
  O   O2870     1.0  0.53496  0.06314  0.95265  1.0000
  O   O2871     1.0  0.54106  0.02333  0.94620  1.0000
  C   C958      1.0  0.09949  0.08187  0.86251  1.0000
  O   O2872     1.0  0.10798  0.07734  0.83646  1.0000
  O   O2873     1.0  0.10198  0.06596  0.88317  1.0000
  O   O2874     1.0  0.08875  0.10240  0.86799  1.0000
  C   C959      1.0  0.55731  0.26395  0.00638  1.0000
  O   O2875     1.0  0.54664  0.24594  0.99317  1.0000
  O   O2876     1.0  0.56936  0.26044  0.03070  1.0000
  O   O2877     1.0  0.55610  0.28545  0.99517  1.0000
  C   C960      1.0  0.71911  0.39125  0.27016  1.0000
  O   O2878     1.0  0.70750  0.41174  0.27257  1.0000
  O   O2879     1.0  0.71490  0.37414  0.28894  1.0000
  O   O2880     1.0  0.73475  0.38778  0.24881  1.0000
  C   C961      1.0  0.62053  0.30280  0.01963  1.0000
  O   O2881     1.0  0.63686  0.29663  0.99994  1.0000
  O   O2882     1.0  0.62580  0.30036  0.04721  1.0000
  O   O2883     1.0  0.59904  0.31163  0.01174  1.0000
  C   C962      1.0  0.32123  0.00197  0.37120  1.0000
  O   O2884     1.0  0.31332  0.98017  0.37601  1.0000
  O   O2885     1.0  0.34223  0.00542  0.35750  1.0000
  O   O2886     1.0  0.30825  0.02031  0.38030  1.0000
  C   C963      1.0  0.95005  0.86534  0.15356  1.0000
  O   O2887     1.0  0.93135  0.87936  0.14717  1.0000
  O   O2888     1.0  0.95007  0.85336  0.17798  1.0000
  O   O2889     1.0  0.96865  0.86317  0.13545  1.0000
  C   C964      1.0  0.25871  0.39595  0.25871  1.0000
  O   O2890     1.0  0.27389  0.38165  0.24484  1.0000
  O   O2891     1.0  0.23510  0.39635  0.25193  1.0000
  O   O2892     1.0  0.26715  0.40984  0.27935  1.0000
  C   C965      1.0  0.90287  0.69068  0.21878  1.0000
  O   O2893     1.0  0.88321  0.67688  0.21882  1.0000
  O   O2894     1.0  0.92161  0.68575  0.20168  1.0000
  O   O2895     1.0  0.90379  0.70939  0.23584  1.0000
  C   C966      1.0  0.27248  0.32578  0.80987  1.0000
  O   O2896     1.0  0.25254  0.31529  0.82000  1.0000
  O   O2897     1.0  0.27074  0.34664  0.79709  1.0000
  O   O2898     1.0  0.29420  0.31551  0.81276  1.0000
  C   C967      1.0  0.84858  0.45954  0.90507  1.0000
  O   O2899     1.0  0.85961  0.48032  0.90258  1.0000
  O   O2900     1.0  0.85876  0.44258  0.92066  1.0000
  O   O2901     1.0  0.82747  0.45565  0.89178  1.0000
  C   C968      1.0  0.67794  0.47452  0.54005  1.0000
  O   O2902     1.0  0.67434  0.47079  0.51232  1.0000
  O   O2903     1.0  0.66527  0.49114  0.55356  1.0000
  O   O2904     1.0  0.69405  0.46150  0.55433  1.0000
  C   C969      1.0  0.29492  0.88087  0.95137  1.0000
  O   O2905     1.0  0.30789  0.86578  0.96695  1.0000
  O   O2906     1.0  0.30040  0.88421  0.92399  1.0000
  O   O2907     1.0  0.27642  0.89257  0.96314  1.0000
  C   C970      1.0  0.20367  0.41565  0.04245  1.0000
  O   O2908     1.0  0.22477  0.41632  0.05655  1.0000
  O   O2909     1.0  0.18846  0.39762  0.04615  1.0000
  O   O2910     1.0  0.19787  0.43291  0.02447  1.0000
  C   C971      1.0  0.63061  0.63051  0.86910  1.0000
  O   O2911     1.0  0.62945  0.60712  0.87018  1.0000
  O   O2912     1.0  0.61517  0.64244  0.85259  1.0000
  O   O2913     1.0  0.64712  0.64198  0.88466  1.0000
  C   C972      1.0  0.29353  0.84109  0.56570  1.0000
  O   O2914     1.0  0.31517  0.83408  0.57549  1.0000
  O   O2915     1.0  0.28940  0.84183  0.53772  1.0000
  O   O2916     1.0  0.27606  0.84747  0.58389  1.0000
  C   C973      1.0  0.08750  0.40773  0.89400  1.0000
  O   O2917     1.0  0.07261  0.42134  0.90925  1.0000
  O   O2918     1.0  0.07828  0.39152  0.87653  1.0000
  O   O2919     1.0  0.11159  0.41037  0.89617  1.0000
  C   C974      1.0  0.17708  0.00775  0.51179  1.0000
  O   O2920     1.0  0.15327  0.01046  0.51658  1.0000
  O   O2921     1.0  0.18847  0.02171  0.49325  1.0000
  O   O2922     1.0  0.18949  0.99110  0.52553  1.0000
  C   C975      1.0  0.94939  0.32751  0.32157  1.0000
  O   O2923     1.0  0.93289  0.34343  0.32950  1.0000
  O   O2924     1.0  0.96745  0.32165  0.33922  1.0000
  O   O2925     1.0  0.94770  0.31728  0.29608  1.0000
  C   C976      1.0  0.07006  0.96683  0.98519  1.0000
  O   O2926     1.0  0.08784  0.96485  0.00443  1.0000
  O   O2927     1.0  0.05321  0.98357  0.98800  1.0000
  O   O2928     1.0  0.06926  0.95222  0.96301  1.0000
  C   C977      1.0  0.50272  0.33047  0.74837  1.0000
  O   O2929     1.0  0.48391  0.32520  0.76520  1.0000
  O   O2930     1.0  0.52490  0.33328  0.75952  1.0000
  O   O2931     1.0  0.49941  0.33269  0.72036  1.0000
  C   C978      1.0  0.37333  0.60714  0.31830  1.0000
  O   O2932     1.0  0.39608  0.61393  0.31254  1.0000
  O   O2933     1.0  0.35465  0.62126  0.31218  1.0000
  O   O2934     1.0  0.36929  0.58631  0.33042  1.0000
  C   C979      1.0  0.61543  0.42673  0.00157  1.0000
  O   O2935     1.0  0.63451  0.44104  0.00457  1.0000
  O   O2936     1.0  0.61064  0.41707  0.97630  1.0000
  O   O2937     1.0  0.60102  0.42222  0.02379  1.0000
  C   C980      1.0  0.76715  0.44320  0.50505  1.0000
  O   O2938     1.0  0.78439  0.43813  0.48598  1.0000
  O   O2939     1.0  0.74786  0.45601  0.49741  1.0000
  O   O2940     1.0  0.76924  0.43553  0.53178  1.0000
  C   C981      1.0  0.73331  0.80114  0.09155  1.0000
  O   O2941     1.0  0.71031  0.79842  0.10015  1.0000
  O   O2942     1.0  0.73799  0.80961  0.06563  1.0000
  O   O2943     1.0  0.75164  0.79517  0.10877  1.0000
  C   C982      1.0  0.59698  0.17050  0.52542  1.0000
  O   O2944     1.0  0.59048  0.17249  0.55268  1.0000
  O   O2945     1.0  0.58229  0.15963  0.50700  1.0000
  O   O2946     1.0  0.61826  0.17921  0.51661  1.0000
  C   C983      1.0  0.11176  0.08763  0.57391  1.0000
  O   O2947     1.0  0.11413  0.06712  0.56046  1.0000
  O   O2948     1.0  0.10056  0.10554  0.56107  1.0000
  O   O2949     1.0  0.12040  0.09018  0.60028  1.0000
  C   C984      1.0  0.23671  0.77570  0.71268  1.0000
  O   O2950     1.0  0.25994  0.78258  0.71394  1.0000
  O   O2951     1.0  0.23048  0.75730  0.69667  1.0000
  O   O2952     1.0  0.21975  0.78709  0.72766  1.0000
  C   C985      1.0  0.71978  0.57081  0.31657  1.0000
  O   O2953     1.0  0.73346  0.58991  0.32049  1.0000
  O   O2954     1.0  0.73031  0.55025  0.31074  1.0000
  O   O2955     1.0  0.69555  0.57232  0.31827  1.0000
  C   C986      1.0  0.79242  0.42913  0.65908  1.0000
  O   O2956     1.0  0.79828  0.43822  0.63380  1.0000
  O   O2957     1.0  0.77972  0.44186  0.67776  1.0000
  O   O2958     1.0  0.79930  0.40733  0.66570  1.0000
  C   C987      1.0  0.67293  0.44794  0.12401  1.0000
  O   O2959     1.0  0.66818  0.46868  0.13602  1.0000
  O   O2960     1.0  0.67280  0.42846  0.13980  1.0000
  O   O2961     1.0  0.67806  0.44672  0.09628  1.0000
  C   C988      1.0  0.57997  0.39637  0.74187  1.0000
  O   O2962     1.0  0.58996  0.40880  0.76294  1.0000
  O   O2963     1.0  0.58048  0.40459  0.71527  1.0000
  O   O2964     1.0  0.56930  0.37582  0.74744  1.0000
  C   C989      1.0  0.82593  0.47778  0.10195  1.0000
  O   O2965     1.0  0.80581  0.49007  0.09623  1.0000
  O   O2966     1.0  0.84257  0.47431  0.08167  1.0000
  O   O2967     1.0  0.82943  0.46900  0.12797  1.0000
  C   C990      1.0  0.12358  0.52947  0.20335  1.0000
  O   O2968     1.0  0.13427  0.53336  0.22843  1.0000
  O   O2969     1.0  0.10934  0.54590  0.19180  1.0000
  O   O2970     1.0  0.12734  0.50925  0.18969  1.0000
  C   C991      1.0  0.17641  0.00477  0.14249  1.0000
  O   O2971     1.0  0.15365  0.00354  0.13260  1.0000
  O   O2972     1.0  0.18038  0.00902  0.17004  1.0000
  O   O2973     1.0  0.19520  0.00156  0.12487  1.0000
  C   C992      1.0  0.17524  0.33019  0.87593  1.0000
  O   O2974     1.0  0.19421  0.32435  0.85963  1.0000
  O   O2975     1.0  0.17498  0.35081  0.88942  1.0000
  O   O2976     1.0  0.15652  0.31540  0.87874  1.0000
  C   C993      1.0  0.12820  0.71201  0.06970  1.0000
  O   O2977     1.0  0.12282  0.72353  0.04577  1.0000
  O   O2978     1.0  0.11671  0.71738  0.09388  1.0000
  O   O2979     1.0  0.14518  0.69524  0.06949  1.0000
  C   C994      1.0  0.04189  0.24561  0.45587  1.0000
  O   O2980     1.0  0.04652  0.24298  0.48358  1.0000
  O   O2981     1.0  0.03554  0.26661  0.44568  1.0000
  O   O2982     1.0  0.04360  0.22724  0.43835  1.0000
  C   C995      1.0  0.84439  0.94156  0.64148  1.0000
  O   O2983     1.0  0.83649  0.91943  0.63988  1.0000
  O   O2984     1.0  0.84715  0.95422  0.61780  1.0000
  O   O2985     1.0  0.84975  0.95094  0.66675  1.0000
  C   C996      1.0  0.00154  0.69187  0.91341  1.0000
  O   O2986     1.0  0.02573  0.69023  0.91112  1.0000
  O   O2987     1.0  0.99151  0.71099  0.92489  1.0000
  O   O2988     1.0  0.98739  0.67443  0.90408  1.0000
  C   C997      1.0  0.60331  0.10162  0.65135  1.0000
  O   O2989     1.0  0.60915  0.08358  0.63455  1.0000
  O   O2990     1.0  0.61217  0.12297  0.64587  1.0000
  O   O2991     1.0  0.58841  0.09836  0.67345  1.0000
  C   C998      1.0  0.47480  0.72716  0.15213  1.0000
  O   O2992     1.0  0.49532  0.73098  0.13760  1.0000
  O   O2993     1.0  0.47250  0.73531  0.17862  1.0000
  O   O2994     1.0  0.45666  0.71499  0.14025  1.0000
  C   C999      1.0  0.66829  0.81147  0.64971  1.0000
  O   O2995     1.0  0.67424  0.80799  0.67693  1.0000
  O   O2996     1.0  0.68511  0.80903  0.62941  1.0000
  O   O2997     1.0  0.64546  0.81719  0.64277  1.0000
  C   C1000     1.0  0.70381  0.56666  0.24014  1.0000
  O   O2998     1.0  0.72773  0.57089  0.24039  1.0000
  O   O2999     1.0  0.68935  0.57841  0.22229  1.0000
  O   O3000     1.0  0.69433  0.55077  0.25784  1.0000
  C   C1001     1.0  0.51135  0.89127  0.31897  1.0000
  O   O3001     1.0  0.52192  0.91227  0.32152  1.0000
  O   O3002     1.0  0.50853  0.87762  0.34184  1.0000
  O   O3003     1.0  0.50381  0.88382  0.29352  1.0000
  C   C1002     1.0  0.12265  0.06793  0.75424  1.0000
  O   O3004     1.0  0.14003  0.06102  0.73621  1.0000
  O   O3005     1.0  0.11628  0.09052  0.75551  1.0000
  O   O3006     1.0  0.11149  0.05222  0.77080  1.0000
  C   C1003     1.0  0.61948  0.56260  0.43250  1.0000
  O   O3007     1.0  0.62756  0.55687  0.40662  1.0000
  O   O3008     1.0  0.59960  0.55225  0.44299  1.0000
  O   O3009     1.0  0.63142  0.57852  0.44800  1.0000
  C   C1004     1.0  0.92263  0.87577  0.24065  1.0000
  O   O3010     1.0  0.94069  0.88902  0.25086  1.0000
  O   O3011     1.0  0.90526  0.88545  0.22460  1.0000
  O   O3012     1.0  0.92185  0.85288  0.24665  1.0000
  C   C1005     1.0  0.76443  0.97893  0.76293  1.0000
  O   O3013     1.0  0.76334  0.96344  0.78420  1.0000
  O   O3014     1.0  0.78286  0.99417  0.76157  1.0000
  O   O3015     1.0  0.74696  0.97933  0.74316  1.0000
  C   C1006     1.0  0.88902  0.87515  0.80428  1.0000
  O   O3016     1.0  0.89384  0.85699  0.82133  1.0000
  O   O3017     1.0  0.90058  0.89553  0.80806  1.0000
  O   O3018     1.0  0.87282  0.87286  0.78327  1.0000
  C   C1007     1.0  0.94539  0.03568  0.48229  1.0000
  O   O3019     1.0  0.92852  0.01940  0.48770  1.0000
  O   O3020     1.0  0.95714  0.04609  0.50373  1.0000
  O   O3021     1.0  0.95050  0.04156  0.45545  1.0000
  C   C1008     1.0  0.67420  0.25445  0.87680  1.0000
  O   O3022     1.0  0.69149  0.23799  0.87590  1.0000
  O   O3023     1.0  0.68033  0.27700  0.87974  1.0000
  O   O3024     1.0  0.65077  0.24835  0.87503  1.0000
  C   C1009     1.0  0.16747  0.55714  0.30877  1.0000
  O   O3025     1.0  0.19034  0.54944  0.31123  1.0000
  O   O3026     1.0  0.15338  0.55895  0.33183  1.0000
  O   O3027     1.0  0.15861  0.56282  0.28323  1.0000
  C   C1010     1.0  0.89719  0.80049  0.00827  1.0000
  O   O3028     1.0  0.89577  0.81137  0.03338  1.0000
  O   O3029     1.0  0.89724  0.81299  0.98424  1.0000
  O   O3030     1.0  0.89855  0.77711  0.00718  1.0000
  C   C1011     1.0  0.97295  0.28117  0.90705  1.0000
  O   O3031     1.0  0.97772  0.25887  0.90038  1.0000
  O   O3032     1.0  0.94992  0.28863  0.90840  1.0000
  O   O3033     1.0  0.99120  0.29604  0.91229  1.0000
  C   C1012     1.0  0.28769  0.27155  0.00754  1.0000
  O   O3034     1.0  0.30624  0.27710  0.02464  1.0000
  O   O3035     1.0  0.27316  0.25354  0.01404  1.0000
  O   O3036     1.0  0.28353  0.28415  0.98409  1.0000
  C   C1013     1.0  0.58793  0.40573  0.38151  1.0000
  O   O3037     1.0  0.60394  0.42295  0.38612  1.0000
  O   O3038     1.0  0.58426  0.39776  0.35514  1.0000
  O   O3039     1.0  0.57577  0.39632  0.40330  1.0000
  C   C1014     1.0  0.27761  0.02119  0.99590  1.0000
  O   O3040     1.0  0.29950  0.01111  0.99385  1.0000
  O   O3041     1.0  0.26455  0.01882  0.01969  1.0000
  O   O3042     1.0  0.26878  0.03363  0.97415  1.0000
  C   C1015     1.0  0.05009  0.64164  0.93272  1.0000
  O   O3043     1.0  0.04659  0.61973  0.92350  1.0000
  O   O3044     1.0  0.07015  0.65335  0.92519  1.0000
  O   O3045     1.0  0.03349  0.65187  0.94936  1.0000
  C   C1016     1.0  0.21697  0.34197  0.52618  1.0000
  O   O3046     1.0  0.20127  0.32626  0.53658  1.0000
  O   O3047     1.0  0.21008  0.36425  0.52264  1.0000
  O   O3048     1.0  0.23964  0.33545  0.51958  1.0000
  C   C1017     1.0  0.64247  0.88789  0.66493  1.0000
  O   O3049     1.0  0.65356  0.90047  0.68509  1.0000
  O   O3050     1.0  0.64023  0.89653  0.63865  1.0000
  O   O3051     1.0  0.63383  0.86656  0.67097  1.0000
  C   C1018     1.0  0.61181  0.10271  0.07960  1.0000
  O   O3052     1.0  0.63466  0.09731  0.08677  1.0000
  O   O3053     1.0  0.59911  0.11789  0.09537  1.0000
  O   O3054     1.0  0.60158  0.09278  0.05681  1.0000
  C   C1019     1.0  0.41618  0.56316  0.94111  1.0000
  O   O3055     1.0  0.39946  0.54936  0.95319  1.0000
  O   O3056     1.0  0.42546  0.58123  0.95559  1.0000
  O   O3057     1.0  0.42359  0.55891  0.91455  1.0000
  C   C1020     1.0  0.29389  0.79362  0.06577  1.0000
  O   O3058     1.0  0.30843  0.79720  0.08813  1.0000
  O   O3059     1.0  0.29047  0.81070  0.04674  1.0000
  O   O3060     1.0  0.28291  0.77291  0.06234  1.0000
  C   C1021     1.0  0.75223  0.61792  0.88613  1.0000
  O   O3061     1.0  0.74850  0.60340  0.86427  1.0000
  O   O3062     1.0  0.73914  0.63758  0.88844  1.0000
  O   O3063     1.0  0.76901  0.61276  0.90573  1.0000
  C   C1022     1.0  0.25977  0.40228  0.74258  1.0000
  O   O3064     1.0  0.26914  0.40917  0.76743  1.0000
  O   O3065     1.0  0.26813  0.41141  0.71831  1.0000
  O   O3066     1.0  0.24205  0.38624  0.74200  1.0000
  C   C1023     1.0  0.91921  0.28827  0.65597  1.0000
  O   O3067     1.0  0.94151  0.28580  0.66691  1.0000
  O   O3068     1.0  0.90321  0.30267  0.66835  1.0000
  O   O3069     1.0  0.91285  0.27622  0.63277  1.0000
  C   C1024     1.0  0.56647  0.48488  0.00092  1.0000
  O   O3070     1.0  0.55016  0.47946  0.02096  1.0000
  O   O3071     1.0  0.56869  0.50704  0.99205  1.0000
  O   O3072     1.0  0.58055  0.46814  0.98976  1.0000
  C   C1025     1.0  0.97498  0.06612  0.34395  1.0000
  O   O3073     1.0  0.99441  0.05216  0.34161  1.0000
  O   O3074     1.0  0.95846  0.06213  0.36424  1.0000
  O   O3075     1.0  0.97222  0.08424  0.32622  1.0000
  C   C1026     1.0  0.67519  0.68034  0.62438  1.0000
  O   O3076     1.0  0.69064  0.66915  0.64162  1.0000
  O   O3077     1.0  0.66321  0.69924  0.63365  1.0000
  O   O3078     1.0  0.67191  0.67277  0.59777  1.0000
  C   C1027     1.0  0.90835  0.23937  0.70979  1.0000
  O   O3079     1.0  0.92962  0.24047  0.69609  1.0000
  O   O3080     1.0  0.89169  0.22352  0.70210  1.0000
  O   O3081     1.0  0.90368  0.25421  0.73110  1.0000
  C   C1028     1.0  0.59336  0.15724  0.77978  1.0000
  O   O3082     1.0  0.57525  0.14754  0.79466  1.0000
  O   O3083     1.0  0.61444  0.16233  0.79255  1.0000
  O   O3084     1.0  0.59046  0.16170  0.75210  1.0000
  C   C1029     1.0  0.44155  0.46004  0.32186  1.0000
  O   O3085     1.0  0.41934  0.46054  0.31031  1.0000
  O   O3086     1.0  0.46032  0.45154  0.30701  1.0000
  O   O3087     1.0  0.44500  0.46804  0.34826  1.0000
  C   C1030     1.0  0.03389  0.71352  0.23669  1.0000
  O   O3088     1.0  0.02053  0.72664  0.25431  1.0000
  O   O3089     1.0  0.02925  0.71367  0.20881  1.0000
  O   O3090     1.0  0.05191  0.70025  0.24696  1.0000
  C   C1031     1.0  0.15269  0.05387  0.30855  1.0000
  O   O3091     1.0  0.16020  0.06006  0.28259  1.0000
  O   O3092     1.0  0.12981  0.05824  0.31660  1.0000
  O   O3093     1.0  0.16814  0.04353  0.32656  1.0000
  C   C1032     1.0  0.30717  0.81056  0.66433  1.0000
  O   O3094     1.0  0.29554  0.82369  0.68354  1.0000
  O   O3095     1.0  0.30166  0.81255  0.63676  1.0000
  O   O3096     1.0  0.32439  0.79551  0.67267  1.0000
  C   C1033     1.0  0.80481  0.13920  0.00313  1.0000
  O   O3097     1.0  0.78263  0.13551  0.01389  1.0000
  O   O3098     1.0  0.81446  0.16071  0.00358  1.0000
  O   O3099     1.0  0.81737  0.12136  0.99197  1.0000
  C   C1034     1.0  0.09685  0.08162  0.36307  1.0000
  O   O3100     1.0  0.10250  0.10191  0.35047  1.0000
  O   O3101     1.0  0.10654  0.07624  0.38830  1.0000
  O   O3102     1.0  0.08170  0.06661  0.35031  1.0000
  C   C1035     1.0  0.79395  0.62761  0.36789  1.0000
  O   O3103     1.0  0.79531  0.61383  0.34497  1.0000
  O   O3104     1.0  0.80145  0.61966  0.39313  1.0000
  O   O3105     1.0  0.78507  0.64935  0.36556  1.0000
  C   C1036     1.0  0.36019  0.37632  0.39755  1.0000
  O   O3106     1.0  0.37230  0.35879  0.38510  1.0000
  O   O3107     1.0  0.35435  0.37494  0.42508  1.0000
  O   O3108     1.0  0.35372  0.39515  0.38241  1.0000
  C   C1037     1.0  0.25341  0.50898  0.03151  1.0000
  O   O3109     1.0  0.23202  0.51588  0.02088  1.0000
  O   O3110     1.0  0.27374  0.52057  0.02474  1.0000
  O   O3111     1.0  0.25450  0.49034  0.04869  1.0000
  C   C1038     1.0  0.57505  0.82403  0.05769  1.0000
  O   O3112     1.0  0.59463  0.82870  0.04181  1.0000
  O   O3113     1.0  0.55277  0.82772  0.04722  1.0000
  O   O3114     1.0  0.57776  0.81578  0.08409  1.0000
  C   C1039     1.0  0.85058  0.33213  0.61168  1.0000
  O   O3115     1.0  0.87477  0.33199  0.61463  1.0000
  O   O3116     1.0  0.83878  0.35243  0.60827  1.0000
  O   O3117     1.0  0.83816  0.31199  0.61239  1.0000
  C   C1040     1.0  0.85066  0.77628  0.27846  1.0000
  O   O3118     1.0  0.86906  0.78945  0.26896  1.0000
  O   O3119     1.0  0.85003  0.76962  0.30569  1.0000
  O   O3120     1.0  0.83301  0.76960  0.26068  1.0000
  C   C1041     1.0  0.30196  0.49732  0.18400  1.0000
  O   O3121     1.0  0.29704  0.49536  0.15628  1.0000
  O   O3122     1.0  0.29304  0.51536  0.19884  1.0000
  O   O3123     1.0  0.31597  0.48136  0.19683  1.0000
  C   C1042     1.0  0.24367  0.87014  0.82286  1.0000
  O   O3124     1.0  0.26578  0.86141  0.82811  1.0000
  O   O3125     1.0  0.23940  0.88162  0.79859  1.0000
  O   O3126     1.0  0.22577  0.86725  0.84177  1.0000
  C   C1043     1.0  0.13273  0.11660  0.22916  1.0000
  O   O3127     1.0  0.12088  0.10215  0.24673  1.0000
  O   O3128     1.0  0.13915  0.10927  0.20324  1.0000
  O   O3129     1.0  0.13827  0.13834  0.23757  1.0000
  C   C1044     1.0  0.53527  0.13932  0.23161  1.0000
  O   O3130     1.0  0.54396  0.16083  0.23648  1.0000
  O   O3131     1.0  0.54567  0.12075  0.24397  1.0000
  O   O3132     1.0  0.51603  0.13640  0.21459  1.0000
  C   C1045     1.0  0.82652  0.12188  0.75387  1.0000
  O   O3133     1.0  0.81407  0.14197  0.75544  1.0000
  O   O3134     1.0  0.83748  0.11329  0.77699  1.0000
  O   O3135     1.0  0.82803  0.11040  0.72917  1.0000
  C   C1046     1.0  0.11871  0.60281  0.50581  1.0000
  O   O3136     1.0  0.14120  0.59738  0.49720  1.0000
  O   O3137     1.0  0.11540  0.61419  0.53034  1.0000
  O   O3138     1.0  0.09955  0.59700  0.48979  1.0000
  C   C1047     1.0  0.46923  0.30908  0.21954  1.0000
  O   O3139     1.0  0.48950  0.30079  0.20748  1.0000
  O   O3140     1.0  0.46939  0.31554  0.24684  1.0000
  O   O3141     1.0  0.44885  0.31109  0.20422  1.0000
  C   C1048     1.0  0.82181  0.78443  0.19471  1.0000
  O   O3142     1.0  0.84302  0.79444  0.18791  1.0000
  O   O3143     1.0  0.80166  0.79747  0.19646  1.0000
  O   O3144     1.0  0.82076  0.76140  0.19978  1.0000
  C   C1049     1.0  0.60077  0.78714  0.97546  1.0000
  O   O3145     1.0  0.62256  0.79571  0.98259  1.0000
  O   O3146     1.0  0.58179  0.79003  0.99288  1.0000
  O   O3147     1.0  0.59800  0.77548  0.95103  1.0000
  C   C1050     1.0  0.60524  0.75216  0.33321  1.0000
  O   O3148     1.0  0.60451  0.75531  0.36135  1.0000
  O   O3149     1.0  0.59323  0.76681  0.31603  1.0000
  O   O3150     1.0  0.61818  0.73450  0.32223  1.0000
  C   C1051     1.0  0.49639  0.07737  0.02949  1.0000
  O   O3151     1.0  0.51458  0.08852  0.04265  1.0000
  O   O3152     1.0  0.49625  0.07572  0.00115  1.0000
  O   O3153     1.0  0.47849  0.06766  0.04469  1.0000
  C   C1052     1.0  0.28598  0.00385  0.30095  1.0000
  O   O3154     1.0  0.29723  0.99658  0.32455  1.0000
  O   O3155     1.0  0.29412  0.99705  0.27547  1.0000
  O   O3156     1.0  0.26688  0.01829  0.30281  1.0000
  C   C1053     1.0  0.37934  0.09622  0.83944  1.0000
  O   O3157     1.0  0.40032  0.08869  0.85054  1.0000
  O   O3158     1.0  0.37411  0.09185  0.81221  1.0000
  O   O3159     1.0  0.36349  0.10792  0.85566  1.0000
  C   C1054     1.0  0.67307  0.95474  0.47484  1.0000
  O   O3160     1.0  0.68793  0.94366  0.45680  1.0000
  O   O3161     1.0  0.66015  0.97321  0.46602  1.0000
  O   O3162     1.0  0.67117  0.94738  0.50172  1.0000
  C   C1055     1.0  0.72499  0.39261  0.57088  1.0000
  O   O3163     1.0  0.74847  0.38653  0.57008  1.0000
  O   O3164     1.0  0.71576  0.40648  0.55069  1.0000
  O   O3165     1.0  0.71080  0.38499  0.59203  1.0000
  C   C1056     1.0  0.76367  0.04167  0.69384  1.0000
  O   O3166     1.0  0.76308  0.03045  0.71877  1.0000
  O   O3167     1.0  0.76048  0.06489  0.69290  1.0000
  O   O3168     1.0  0.76741  0.02966  0.66984  1.0000
  C   C1057     1.0  0.34182  0.76926  0.49395  1.0000
  O   O3169     1.0  0.35353  0.74880  0.49174  1.0000
  O   O3170     1.0  0.35295  0.78773  0.50563  1.0000
  O   O3171     1.0  0.31891  0.77117  0.48473  1.0000
  C   C1058     1.0  0.34559  0.66766  0.17014  1.0000
  O   O3172     1.0  0.34648  0.64725  0.15621  1.0000
  O   O3173     1.0  0.36301  0.67316  0.18882  1.0000
  O   O3174     1.0  0.32693  0.68231  0.16594  1.0000
  C   C1059     1.0  0.10360  0.78358  0.57481  1.0000
  O   O3175     1.0  0.12185  0.77929  0.55677  1.0000
  O   O3176     1.0  0.08055  0.78160  0.56607  1.0000
  O   O3177     1.0  0.10840  0.78972  0.60165  1.0000
  C   C1060     1.0  0.88912  0.15589  0.93674  1.0000
  O   O3178     1.0  0.91179  0.14800  0.93297  1.0000
  O   O3179     1.0  0.87902  0.17004  0.91740  1.0000
  O   O3180     1.0  0.87662  0.14980  0.95996  1.0000
  C   C1061     1.0  0.20567  0.06722  0.65466  1.0000
  O   O3181     1.0  0.20550  0.08805  0.64166  1.0000
  O   O3182     1.0  0.22465  0.06100  0.67074  1.0000
  O   O3183     1.0  0.18676  0.05267  0.65175  1.0000
  C   C1062     1.0  0.54421  0.35603  0.84887  1.0000
  O   O3184     1.0  0.53977  0.37579  0.86323  1.0000
  O   O3185     1.0  0.52689  0.34660  0.83253  1.0000
  O   O3186     1.0  0.56590  0.34558  0.85107  1.0000
  C   C1063     1.0  0.39616  0.56051  0.04071  1.0000
  O   O3187     1.0  0.40240  0.53824  0.04571  1.0000
  O   O3188     1.0  0.41241  0.57539  0.02970  1.0000
  O   O3189     1.0  0.37374  0.56796  0.04700  1.0000
  C   C1064     1.0  0.60895  0.50207  0.03505  1.0000
  O   O3190     1.0  0.61000  0.47869  0.03646  1.0000
  O   O3191     1.0  0.62211  0.51357  0.01565  1.0000
  O   O3192     1.0  0.59456  0.51394  0.05287  1.0000
  C   C1065     1.0  0.30952  0.07554  0.02140  1.0000
  O   O3193     1.0  0.32896  0.08887  0.01591  1.0000
  O   O3194     1.0  0.28718  0.08468  0.01960  1.0000
  O   O3195     1.0  0.31243  0.05310  0.02888  1.0000
  C   C1066     1.0  0.90028  0.99632  0.20753  1.0000
  O   O3196     1.0  0.91963  0.99507  0.19039  1.0000
  O   O3197     1.0  0.90332  0.00019  0.23533  1.0000
  O   O3198     1.0  0.87790  0.99374  0.19687  1.0000
  C   C1067     1.0  0.88824  0.80491  0.83757  1.0000
  O   O3199     1.0  0.87062  0.81231  0.85497  1.0000
  O   O3200     1.0  0.91124  0.80398  0.84675  1.0000
  O   O3201     1.0  0.88285  0.79834  0.81104  1.0000
  C   C1068     1.0  0.43828  0.12296  0.37512  1.0000
  O   O3202     1.0  0.45760  0.12997  0.36010  1.0000
  O   O3203     1.0  0.43729  0.12708  0.40307  1.0000
  O   O3204     1.0  0.42004  0.11167  0.36225  1.0000
  C   C1069     1.0  0.25488  0.48071  0.72931  1.0000
  O   O3205     1.0  0.25105  0.47085  0.70393  1.0000
  O   O3206     1.0  0.25443  0.50404  0.73199  1.0000
  O   O3207     1.0  0.25892  0.46724  0.75207  1.0000
  C   C1070     1.0  0.86722  0.56560  0.85655  1.0000
  O   O3208     1.0  0.87475  0.54847  0.87383  1.0000
  O   O3209     1.0  0.86019  0.58618  0.86737  1.0000
  O   O3210     1.0  0.86657  0.56209  0.82847  1.0000
  C   C1071     1.0  0.34044  0.71862  0.43426  1.0000
  O   O3211     1.0  0.36201  0.72780  0.42726  1.0000
  O   O3212     1.0  0.33939  0.69950  0.45065  1.0000
  O   O3213     1.0  0.31997  0.72812  0.42412  1.0000
  C   C1072     1.0  0.13198  0.30211  0.31090  1.0000
  O   O3214     1.0  0.14142  0.31907  0.32712  1.0000
  O   O3215     1.0  0.14577  0.28396  0.30296  1.0000
  O   O3216     1.0  0.10878  0.30338  0.30250  1.0000
  C   C1073     1.0  0.60245  0.18605  0.12081  1.0000
  O   O3217     1.0  0.57882  0.19106  0.12376  1.0000
  O   O3218     1.0  0.61923  0.20010  0.13232  1.0000
  O   O3219     1.0  0.60929  0.16710  0.10613  1.0000
  C   C1074     1.0  0.26279  0.49505  0.45017  1.0000
  O   O3220     1.0  0.25468  0.48453  0.42662  1.0000
  O   O3221     1.0  0.25932  0.48502  0.47553  1.0000
  O   O3222     1.0  0.27417  0.51571  0.44840  1.0000
  C   C1075     1.0  0.53835  0.59411  0.21252  1.0000
  O   O3223     1.0  0.55906  0.58210  0.21569  1.0000
  O   O3224     1.0  0.53537  0.61459  0.22587  1.0000
  O   O3225     1.0  0.52060  0.58560  0.19605  1.0000
  C   C1076     1.0  0.77756  0.33931  0.20647  1.0000
  O   O3226     1.0  0.79126  0.35730  0.19779  1.0000
  O   O3227     1.0  0.75800  0.34320  0.22268  1.0000
  O   O3228     1.0  0.78340  0.31744  0.19891  1.0000
  C   C1077     1.0  0.21062  0.77256  0.91696  1.0000
  O   O3229     1.0  0.23453  0.77548  0.91312  1.0000
  O   O3230     1.0  0.19486  0.78180  0.89844  1.0000
  O   O3231     1.0  0.20248  0.76022  0.93916  1.0000
  C   C1078     1.0  0.24464  0.05963  0.29603  1.0000
  O   O3232     1.0  0.25946  0.06201  0.27369  1.0000
  O   O3233     1.0  0.25269  0.06458  0.32216  1.0000
  O   O3234     1.0  0.22182  0.05215  0.29226  1.0000
  C   C1079     1.0  0.21352  0.54493  0.10186  1.0000
  O   O3235     1.0  0.22317  0.56519  0.09314  1.0000
  O   O3236     1.0  0.20760  0.54200  0.12919  1.0000
  O   O3237     1.0  0.20955  0.52767  0.08320  1.0000
  C   C1080     1.0  0.32160  0.64094  0.01059  1.0000
  O   O3238     1.0  0.33101  0.63917  0.98448  1.0000
  O   O3239     1.0  0.32557  0.66020  0.02609  1.0000
  O   O3240     1.0  0.30840  0.62334  0.02130  1.0000
  C   C1081     1.0  0.21161  0.86060  0.59929  1.0000
  O   O3241     1.0  0.22533  0.87269  0.58097  1.0000
  O   O3242     1.0  0.18987  0.86886  0.60712  1.0000
  O   O3243     1.0  0.21953  0.84011  0.60952  1.0000
  C   C1082     1.0  0.75284  0.11539  0.94737  1.0000
  O   O3244     1.0  0.77115  0.13055  0.95079  1.0000
  O   O3245     1.0  0.73753  0.11115  0.96885  1.0000
  O   O3246     1.0  0.74991  0.10438  0.92253  1.0000
  C   C1083     1.0  0.23167  0.09151  0.86879  1.0000
  O   O3247     1.0  0.24055  0.07607  0.85011  1.0000
  O   O3248     1.0  0.24119  0.11303  0.87043  1.0000
  O   O3249     1.0  0.21313  0.08549  0.88567  1.0000
  C   C1084     1.0  0.45212  0.92890  0.33333  1.0000
  O   O3250     1.0  0.47335  0.92040  0.34257  1.0000
  O   O3251     1.0  0.45139  0.94949  0.31979  1.0000
  O   O3252     1.0  0.43168  0.91658  0.33708  1.0000
  C   C1085     1.0  0.59052  0.22536  0.26031  1.0000
  O   O3253     1.0  0.60105  0.22069  0.28528  1.0000
  O   O3254     1.0  0.60376  0.23397  0.23889  1.0000
  O   O3255     1.0  0.56676  0.22130  0.25671  1.0000
  C   C1086     1.0  0.46899  0.36695  0.00082  1.0000
  O   O3256     1.0  0.47757  0.37746  0.02415  1.0000
  O   O3257     1.0  0.47150  0.37723  0.97545  1.0000
  O   O3258     1.0  0.45812  0.34605  0.00281  1.0000
  C   C1087     1.0  0.57064  0.16085  0.02004  1.0000
  O   O3259     1.0  0.56156  0.14422  0.03700  1.0000
  O   O3260     1.0  0.55578  0.17644  0.00785  1.0000
  O   O3261     1.0  0.59457  0.16176  0.01504  1.0000
  C   C1088     1.0  0.17904  0.59313  0.77119  1.0000
  O   O3262     1.0  0.20230  0.59998  0.77076  1.0000
  O   O3263     1.0  0.16506  0.59808  0.79364  1.0000
  O   O3264     1.0  0.16983  0.58114  0.74928  1.0000
  C   C1089     1.0  0.52984  0.29791  0.08195  1.0000
  O   O3265     1.0  0.54951  0.29636  0.09854  1.0000
  O   O3266     1.0  0.53074  0.31030  0.05786  1.0000
  O   O3267     1.0  0.50924  0.28710  0.08947  1.0000
  C   C1090     1.0  0.27040  0.34229  0.31052  1.0000
  O   O3268     1.0  0.27958  0.33421  0.33494  1.0000
  O   O3269     1.0  0.27332  0.36482  0.30346  1.0000
  O   O3270     1.0  0.25834  0.32785  0.29315  1.0000
  C   C1091     1.0  0.46014  0.45553  0.47216  1.0000
  O   O3271     1.0  0.47019  0.47648  0.47713  1.0000
  O   O3272     1.0  0.45269  0.44224  0.49388  1.0000
  O   O3273     1.0  0.45780  0.44778  0.44550  1.0000
  C   C1092     1.0  0.73803  0.02109  0.24066  1.0000
  O   O3274     1.0  0.75384  0.00509  0.23120  1.0000
  O   O3275     1.0  0.74565  0.04275  0.24684  1.0000
  O   O3276     1.0  0.71464  0.01537  0.24420  1.0000
  C   C1093     1.0  0.02997  0.13912  0.72168  1.0000
  O   O3277     1.0  0.05347  0.14511  0.72251  1.0000
  O   O3278     1.0  0.01605  0.14604  0.69995  1.0000
  O   O3279     1.0  0.02044  0.12603  0.74245  1.0000
  C   C1094     1.0  0.91987  0.82489  0.53863  1.0000
  O   O3280     1.0  0.91064  0.84445  0.52730  1.0000
  O   O3281     1.0  0.92774  0.82489  0.56551  1.0000
  O   O3282     1.0  0.92145  0.80538  0.52299  1.0000
  C   C1095     1.0  0.25581  0.24244  0.81903  1.0000
  O   O3283     1.0  0.24441  0.25884  0.80373  1.0000
  O   O3284     1.0  0.26797  0.22525  0.80595  1.0000
  O   O3285     1.0  0.25502  0.24320  0.84741  1.0000
  C   C1096     1.0  0.74524  0.62017  0.69992  1.0000
  O   O3286     1.0  0.74423  0.64335  0.69591  1.0000
  O   O3287     1.0  0.73120  0.60593  0.68441  1.0000
  O   O3288     1.0  0.76043  0.61121  0.71926  1.0000
  C   C1097     1.0  0.47705  0.50821  0.14804  1.0000
  O   O3289     1.0  0.47689  0.52255  0.12557  1.0000
  O   O3290     1.0  0.45672  0.49701  0.15569  1.0000
  O   O3291     1.0  0.49757  0.50498  0.16277  1.0000
  C   C1098     1.0  0.42727  0.27207  0.40015  1.0000
  O   O3292     1.0  0.43812  0.25813  0.38116  1.0000
  O   O3293     1.0  0.42623  0.29519  0.39565  1.0000
  O   O3294     1.0  0.41751  0.26291  0.42369  1.0000
  C   C1099     1.0  0.19881  0.66758  0.23817  1.0000
  O   O3295     1.0  0.21952  0.67746  0.24703  1.0000
  O   O3296     1.0  0.17880  0.68064  0.23504  1.0000
  O   O3297     1.0  0.19812  0.64464  0.23244  1.0000
  C   C1100     1.0  0.92322  0.30013  0.81972  1.0000
  O   O3298     1.0  0.93277  0.27966  0.81157  1.0000
  O   O3299     1.0  0.92472  0.30683  0.84689  1.0000
  O   O3300     1.0  0.91195  0.31380  0.80077  1.0000
  C   C1101     1.0  0.72357  0.91789  0.66079  1.0000
  O   O3301     1.0  0.70400  0.90746  0.64964  1.0000
  O   O3302     1.0  0.73411  0.90897  0.68400  1.0000
  O   O3303     1.0  0.73256  0.93728  0.64879  1.0000
  C   C1102     1.0  0.68107  0.73562  0.29359  1.0000
  O   O3304     1.0  0.66227  0.73592  0.27558  1.0000
  O   O3305     1.0  0.70340  0.74092  0.28433  1.0000
  O   O3306     1.0  0.67760  0.72977  0.32080  1.0000
  C   C1103     1.0  0.92969  0.66051  0.65487  1.0000
  O   O3307     1.0  0.94601  0.66650  0.67464  1.0000
  O   O3308     1.0  0.90611  0.66516  0.65894  1.0000
  O   O3309     1.0  0.93693  0.64965  0.63116  1.0000
  C   C1104     1.0  0.25635  0.50465  0.31034  1.0000
  O   O3310     1.0  0.27352  0.52079  0.30562  1.0000
  O   O3311     1.0  0.23383  0.50791  0.30037  1.0000
  O   O3312     1.0  0.26176  0.48516  0.32478  1.0000
  C   C1105     1.0  0.18718  0.29351  0.72790  1.0000
  O   O3313     1.0  0.18019  0.30558  0.70495  1.0000
  O   O3314     1.0  0.17463  0.29536  0.75213  1.0000
  O   O3315     1.0  0.20685  0.27977  0.72669  1.0000
  C   C1106     1.0  0.31182  0.35527  0.36688  1.0000
  O   O3316     1.0  0.29650  0.36899  0.38137  1.0000
  O   O3317     1.0  0.31910  0.36151  0.34085  1.0000
  O   O3318     1.0  0.32005  0.33542  0.37853  1.0000
  C   C1107     1.0  0.48517  0.14419  0.87383  1.0000
  O   O3319     1.0  0.50699  0.14663  0.88603  1.0000
  O   O3320     1.0  0.46633  0.15694  0.88299  1.0000
  O   O3321     1.0  0.48217  0.12895  0.85254  1.0000
  C   C1108     1.0  0.49876  0.55435  0.73227  1.0000
  O   O3322     1.0  0.51070  0.53421  0.73638  1.0000
  O   O3323     1.0  0.48259  0.56175  0.75149  1.0000
  O   O3324     1.0  0.50283  0.56696  0.70880  1.0000
  C   C1109     1.0  0.41288  0.22055  0.62852  1.0000
  O   O3325     1.0  0.40220  0.22218  0.65396  1.0000
  O   O3326     1.0  0.43060  0.20488  0.62429  1.0000
  O   O3327     1.0  0.40568  0.23442  0.60722  1.0000
  C   C1110     1.0  0.78784  0.42440  0.78219  1.0000
  O   O3328     1.0  0.78743  0.44168  0.76300  1.0000
  O   O3329     1.0  0.77713  0.42736  0.80745  1.0000
  O   O3330     1.0  0.79928  0.40430  0.77629  1.0000
  C   C1111     1.0  0.95105  0.96278  0.29088  1.0000
  O   O3331     1.0  0.94013  0.95267  0.26865  1.0000
  O   O3332     1.0  0.96894  0.97828  0.28668  1.0000
  O   O3333     1.0  0.94395  0.95755  0.31730  1.0000
  C   C1112     1.0  0.75175  0.41374  0.29819  1.0000
  O   O3334     1.0  0.75579  0.43112  0.27973  1.0000
  O   O3335     1.0  0.73520  0.41639  0.31877  1.0000
  O   O3336     1.0  0.76440  0.39380  0.29624  1.0000
  C   C1113     1.0  0.62818  0.50386  0.23258  1.0000
  O   O3337     1.0  0.62157  0.48954  0.25371  1.0000
  O   O3338     1.0  0.61927  0.50061  0.20644  1.0000
  O   O3339     1.0  0.64372  0.52140  0.23759  1.0000
  C   C1114     1.0  0.89631  0.44017  0.35001  1.0000
  O   O3340     1.0  0.90500  0.45902  0.36350  1.0000
  O   O3341     1.0  0.88354  0.42410  0.36432  1.0000
  O   O3342     1.0  0.90040  0.43740  0.32220  1.0000
  C   C1115     1.0  0.40814  0.86181  0.41385  1.0000
  O   O3343     1.0  0.40464  0.83916  0.41988  1.0000
  O   O3344     1.0  0.42947  0.86897  0.40333  1.0000
  O   O3345     1.0  0.39031  0.87730  0.41839  1.0000
  C   C1116     1.0  0.67441  0.77739  0.79750  1.0000
  O   O3346     1.0  0.68919  0.77957  0.81991  1.0000
  O   O3347     1.0  0.67821  0.79031  0.77422  1.0000
  O   O3348     1.0  0.65572  0.76242  0.79845  1.0000
  C   C1117     1.0  0.28402  0.26568  0.24935  1.0000
  O   O3349     1.0  0.27267  0.24784  0.23655  1.0000
  O   O3350     1.0  0.27112  0.28187  0.26330  1.0000
  O   O3351     1.0  0.30825  0.26738  0.24809  1.0000
  C   C1118     1.0  0.36540  0.25960  0.19454  1.0000
  O   O3352     1.0  0.38926  0.25811  0.18937  1.0000
  O   O3353     1.0  0.34941  0.25475  0.17396  1.0000
  O   O3354     1.0  0.35752  0.26575  0.22037  1.0000
  C   C1119     1.0  0.91032  0.38167  0.99306  1.0000
  O   O3355     1.0  0.91747  0.37219  0.96846  1.0000
  O   O3356     1.0  0.92630  0.39325  0.00924  1.0000
  O   O3357     1.0  0.88725  0.37939  0.00161  1.0000
  C   C1120     1.0  0.90909  0.86755  0.67601  1.0000
  O   O3358     1.0  0.92552  0.88351  0.66796  1.0000
  O   O3359     1.0  0.88543  0.87136  0.67132  1.0000
  O   O3360     1.0  0.91630  0.84790  0.68898  1.0000
  C   C1121     1.0  0.93186  0.06324  0.68942  1.0000
  O   O3361     1.0  0.91277  0.04890  0.68677  1.0000
  O   O3362     1.0  0.95445  0.05458  0.68852  1.0000
  O   O3363     1.0  0.92837  0.08625  0.69293  1.0000
  C   C1122     1.0  0.21816  0.03487  0.79232  1.0000
  O   O3364     1.0  0.20307  0.04791  0.80803  1.0000
  O   O3365     1.0  0.24216  0.03850  0.79366  1.0000
  O   O3366     1.0  0.20931  0.01765  0.77604  1.0000
  C   C1123     1.0  0.11029  0.49245  0.56565  1.0000
  O   O3367     1.0  0.10914  0.47615  0.58602  1.0000
  O   O3368     1.0  0.09747  0.51225  0.56812  1.0000
  O   O3369     1.0  0.12414  0.48886  0.54270  1.0000
  C   C1124     1.0  0.67457  0.00710  0.68754  1.0000
  O   O3370     1.0  0.69123  0.00497  0.70807  1.0000
  O   O3371     1.0  0.65779  0.99040  0.68392  1.0000
  O   O3372     1.0  0.67482  0.02582  0.67045  1.0000
  C   C1125     1.0  0.81838  0.88254  0.17229  1.0000
  O   O3373     1.0  0.83663  0.89030  0.18854  1.0000
  O   O3374     1.0  0.80971  0.89597  0.15133  1.0000
  O   O3375     1.0  0.80868  0.86143  0.17714  1.0000
  C   C1126     1.0  0.97092  0.32499  0.41676  1.0000
  O   O3376     1.0  0.98659  0.32502  0.39504  1.0000
  O   O3377     1.0  0.96663  0.34477  0.43115  1.0000
  O   O3378     1.0  0.95972  0.30513  0.42427  1.0000
  C   C1127     1.0  0.39402  0.43672  0.60374  1.0000
  O   O3379     1.0  0.39720  0.44317  0.57669  1.0000
  O   O3380     1.0  0.38083  0.41769  0.60987  1.0000
  O   O3381     1.0  0.40416  0.44920  0.62466  1.0000
  C   C1128     1.0  0.48616  0.51754  0.83157  1.0000
  O   O3382     1.0  0.47834  0.51520  0.85832  1.0000
  O   O3383     1.0  0.47917  0.53599  0.81607  1.0000
  O   O3384     1.0  0.50117  0.50156  0.82042  1.0000
  C   C1129     1.0  0.37215  0.62858  0.03503  1.0000
  O   O3385     1.0  0.38860  0.64568  0.03226  1.0000
  O   O3386     1.0  0.35705  0.62846  0.05730  1.0000
  O   O3387     1.0  0.37096  0.61146  0.01568  1.0000
  C   C1130     1.0  0.36903  0.27594  0.72013  1.0000
  O   O3388     1.0  0.38614  0.29214  0.72481  1.0000
  O   O3389     1.0  0.35126  0.27269  0.73912  1.0000
  O   O3390     1.0  0.36956  0.26314  0.69634  1.0000
  C   C1131     1.0  0.30233  0.71748  0.35663  1.0000
  O   O3391     1.0  0.32628  0.72106  0.35904  1.0000
  O   O3392     1.0  0.29062  0.72430  0.33315  1.0000
  O   O3393     1.0  0.29006  0.70728  0.37781  1.0000
  C   C1132     1.0  0.77729  0.92302  0.95380  1.0000
  O   O3394     1.0  0.79685  0.92920  0.93867  1.0000
  O   O3395     1.0  0.76620  0.93878  0.97036  1.0000
  O   O3396     1.0  0.76894  0.90104  0.95254  1.0000
  C   C1133     1.0  0.78331  0.44535  0.07577  1.0000
  O   O3397     1.0  0.76545  0.45524  0.09086  1.0000
  O   O3398     1.0  0.79977  0.43178  0.08869  1.0000
  O   O3399     1.0  0.78486  0.44921  0.04781  1.0000
  C   C1134     1.0  0.60404  0.23714  0.70398  1.0000
  O   O3400     1.0  0.60197  0.25830  0.71596  1.0000
  O   O3401     1.0  0.58657  0.22925  0.68669  1.0000
  O   O3402     1.0  0.62354  0.22386  0.70936  1.0000
  C   C1135     1.0  0.04066  0.88401  0.46104  1.0000
  O   O3403     1.0  0.05257  0.90065  0.47542  1.0000
  O   O3404     1.0  0.01634  0.88390  0.46065  1.0000
  O   O3405     1.0  0.05306  0.86758  0.44690  1.0000
  C   C1136     1.0  0.46821  0.79650  0.72673  1.0000
  O   O3406     1.0  0.48528  0.78414  0.74034  1.0000
  O   O3407     1.0  0.47465  0.81414  0.70961  1.0000
  O   O3408     1.0  0.44470  0.79134  0.73042  1.0000
  C   C1137     1.0  0.54574  0.37599  0.99047  1.0000
  O   O3409     1.0  0.54165  0.35453  0.00084  1.0000
  O   O3410     1.0  0.56743  0.38616  0.99414  1.0000
  O   O3411     1.0  0.52815  0.38728  0.97641  1.0000
  C   C1138     1.0  0.60982  0.85080  0.96373  1.0000
  O   O3412     1.0  0.62925  0.85176  0.98077  1.0000
  O   O3413     1.0  0.60272  0.86990  0.94950  1.0000
  O   O3414     1.0  0.59738  0.83078  0.96106  1.0000
  C   C1139     1.0  0.43121  0.20284  0.42204  1.0000
  O   O3415     1.0  0.45212  0.21462  0.41948  1.0000
  O   O3416     1.0  0.41096  0.21407  0.42991  1.0000
  O   O3417     1.0  0.43050  0.17987  0.41645  1.0000
  C   C1140     1.0  0.22826  0.58285  0.00150  1.0000
  O   O3418     1.0  0.23226  0.56109  0.99203  1.0000
  O   O3419     1.0  0.21689  0.59842  0.98494  1.0000
  O   O3420     1.0  0.23560  0.58901  0.02753  1.0000
  C   C1141     1.0  0.49835  0.07381  0.83541  1.0000
  O   O3421     1.0  0.51007  0.05351  0.83915  1.0000
  O   O3422     1.0  0.50883  0.09111  0.82067  1.0000
  O   O3423     1.0  0.47624  0.07689  0.84664  1.0000
  C   C1142     1.0  0.54491  0.95282  0.93145  1.0000
  O   O3424     1.0  0.53001  0.96577  0.91540  1.0000
  O   O3425     1.0  0.56068  0.96326  0.94899  1.0000
  O   O3426     1.0  0.54418  0.92944  0.92979  1.0000
  C   C1143     1.0  0.76767  0.79372  0.36807  1.0000
  O   O3427     1.0  0.76562  0.77405  0.35281  1.0000
  O   O3428     1.0  0.78962  0.80299  0.37293  1.0000
  O   O3429     1.0  0.74780  0.80399  0.37871  1.0000
  C   C1144     1.0  0.29553  0.60484  0.14440  1.0000
  O   O3430     1.0  0.28669  0.62061  0.12610  1.0000
  O   O3431     1.0  0.31956  0.60179  0.14675  1.0000
  O   O3432     1.0  0.28034  0.59200  0.16020  1.0000
  C   C1145     1.0  0.37420  0.19211  0.81402  1.0000
  O   O3433     1.0  0.37164  0.18763  0.78630  1.0000
  O   O3434     1.0  0.35653  0.20320  0.82817  1.0000
  O   O3435     1.0  0.39434  0.18532  0.82766  1.0000
  C   C1146     1.0  0.38426  0.28683  0.36674  1.0000
  O   O3436     1.0  0.38308  0.26542  0.37820  1.0000
  O   O3437     1.0  0.37734  0.30551  0.38186  1.0000
  O   O3438     1.0  0.39258  0.28958  0.34025  1.0000
  C   C1147     1.0  0.57298  0.34640  0.08368  1.0000
  O   O3439     1.0  0.59178  0.33155  0.08243  1.0000
  O   O3440     1.0  0.56399  0.35292  0.10889  1.0000
  O   O3441     1.0  0.56271  0.35420  0.05970  1.0000
  C   C1148     1.0  0.61363  0.02783  0.35628  1.0000
  O   O3442     1.0  0.63106  0.04044  0.34366  1.0000
  O   O3443     1.0  0.61801  0.01740  0.38120  1.0000
  O   O3444     1.0  0.59181  0.02568  0.34400  1.0000
  C   C1149     1.0  0.71628  0.38402  0.78738  1.0000
  O   O3445     1.0  0.72779  0.40241  0.79874  1.0000
  O   O3446     1.0  0.70383  0.38650  0.76317  1.0000
  O   O3447     1.0  0.71703  0.36319  0.80039  1.0000
  C   C1150     1.0  0.52934  0.70591  0.00514  1.0000
  O   O3448     1.0  0.55141  0.69858  0.01309  1.0000
  O   O3449     1.0  0.52698  0.72044  0.98302  1.0000
  O   O3450     1.0  0.50962  0.69863  0.01923  1.0000
  C   C1151     1.0  0.24753  0.21101  0.93083  1.0000
  O   O3451     1.0  0.23953  0.21471  0.90438  1.0000
  O   O3452     1.0  0.25598  0.22890  0.94628  1.0000
  O   O3453     1.0  0.24711  0.18940  0.94181  1.0000
  C   C1152     1.0  0.06309  0.33566  0.66289  1.0000
  O   O3454     1.0  0.08167  0.35033  0.66733  1.0000
  O   O3455     1.0  0.04107  0.34414  0.65655  1.0000
  O   O3456     1.0  0.06652  0.31252  0.66479  1.0000
  C   C1153     1.0  0.16411  0.43736  0.93232  1.0000
  O   O3457     1.0  0.16669  0.43247  0.90470  1.0000
  O   O3458     1.0  0.16957  0.45874  0.94206  1.0000
  O   O3459     1.0  0.15614  0.42086  0.95021  1.0000
  C   C1154     1.0  0.28407  0.17459  0.88249  1.0000
  O   O3460     1.0  0.26537  0.17286  0.86444  1.0000
  O   O3461     1.0  0.29657  0.19463  0.88437  1.0000
  O   O3462     1.0  0.29011  0.15635  0.89887  1.0000
  C   C1155     1.0  0.70768  0.05299  0.93168  1.0000
  O   O3463     1.0  0.71590  0.06399  0.90850  1.0000
  O   O3464     1.0  0.71125  0.06239  0.95737  1.0000
  O   O3465     1.0  0.69610  0.03249  0.92919  1.0000
  C   C1156     1.0  0.51638  0.53122  0.04658  1.0000
  O   O3466     1.0  0.52484  0.54816  0.02962  1.0000
  O   O3467     1.0  0.49252  0.52672  0.04754  1.0000
  O   O3468     1.0  0.53177  0.51878  0.06259  1.0000
  C   C1157     1.0  0.74781  0.49416  0.33570  1.0000
  O   O3469     1.0  0.77135  0.50005  0.33558  1.0000
  O   O3470     1.0  0.74006  0.47611  0.32000  1.0000
  O   O3471     1.0  0.73203  0.50629  0.35154  1.0000
  C   C1158     1.0  0.62074  0.35479  0.15746  1.0000
  O   O3472     1.0  0.61362  0.37283  0.17358  1.0000
  O   O3473     1.0  0.63451  0.35858  0.13450  1.0000
  O   O3474     1.0  0.61399  0.33299  0.16423  1.0000
  C   C1159     1.0  0.95714  0.26234  0.52566  1.0000
  O   O3475     1.0  0.95191  0.24560  0.50675  1.0000
  O   O3476     1.0  0.97823  0.26176  0.53980  1.0000
  O   O3477     1.0  0.94140  0.27980  0.53022  1.0000
  C   C1160     1.0  0.29391  0.53121  0.82529  1.0000
  O   O3478     1.0  0.27747  0.54279  0.80976  1.0000
  O   O3479     1.0  0.29652  0.53615  0.85290  1.0000
  O   O3480     1.0  0.30761  0.51458  0.81328  1.0000
  C   C1161     1.0  0.68206  0.67979  0.26627  1.0000
  O   O3481     1.0  0.68962  0.68939  0.29064  1.0000
  O   O3482     1.0  0.69828  0.67311  0.24671  1.0000
  O   O3483     1.0  0.65828  0.67695  0.26142  1.0000
  C   C1162     1.0  0.73118  0.83683  0.68803  1.0000
  O   O3484     1.0  0.74035  0.82424  0.66659  1.0000
  O   O3485     1.0  0.73570  0.85981  0.68967  1.0000
  O   O3486     1.0  0.71728  0.82646  0.70767  1.0000
  C   C1163     1.0  0.51349  0.73602  0.23489  1.0000
  O   O3487     1.0  0.53773  0.73473  0.23660  1.0000
  O   O3488     1.0  0.50260  0.75688  0.23257  1.0000
  O   O3489     1.0  0.50015  0.71642  0.23523  1.0000
  C   C1164     1.0  0.41071  0.41646  0.51180  1.0000
  O   O3490     1.0  0.42631  0.41534  0.53356  1.0000
  O   O3491     1.0  0.39693  0.43554  0.50819  1.0000
  O   O3492     1.0  0.40871  0.39841  0.49384  1.0000
  C   C1165     1.0  0.31261  0.25730  0.84034  1.0000
  O   O3493     1.0  0.32108  0.26365  0.81484  1.0000
  O   O3494     1.0  0.30369  0.27348  0.85806  1.0000
  O   O3495     1.0  0.31376  0.23487  0.84847  1.0000
  C   C1166     1.0  0.23516  0.33229  0.66877  1.0000
  O   O3496     1.0  0.25721  0.34218  0.66883  1.0000
  O   O3497     1.0  0.21551  0.34516  0.67481  1.0000
  O   O3498     1.0  0.23277  0.30952  0.66265  1.0000
  C   C1167     1.0  0.02711  0.78147  0.74633  1.0000
  O   O3499     1.0  0.00487  0.78218  0.75781  1.0000
  O   O3500     1.0  0.04607  0.79037  0.76047  1.0000
  O   O3501     1.0  0.03041  0.77169  0.72080  1.0000
  C   C1168     1.0  0.62367  0.56789  0.06676  1.0000
  O   O3502     1.0  0.61642  0.55629  0.08995  1.0000
  O   O3503     1.0  0.64092  0.58433  0.06880  1.0000
  O   O3504     1.0  0.61373  0.56300  0.04152  1.0000
  C   C1169     1.0  0.77267  0.36663  0.98741  1.0000
  O   O3505     1.0  0.78129  0.35082  0.00581  1.0000
  O   O3506     1.0  0.78719  0.38365  0.97769  1.0000
  O   O3507     1.0  0.74929  0.36597  0.97958  1.0000
  C   C1170     1.0  0.52577  0.09357  0.71231  1.0000
  O   O3508     1.0  0.50919  0.10674  0.72563  1.0000
  O   O3509     1.0  0.54932  0.09930  0.71368  1.0000
  O   O3510     1.0  0.51879  0.07468  0.69761  1.0000
  C   C1171     1.0  0.38007  0.30680  0.79878  1.0000
  O   O3511     1.0  0.39981  0.31082  0.78292  1.0000
  O   O3512     1.0  0.36748  0.32477  0.80955  1.0000
  O   O3513     1.0  0.37299  0.28479  0.80400  1.0000
  C   C1172     1.0  0.41636  0.32759  0.28339  1.0000
  O   O3514     1.0  0.41281  0.31939  0.25710  1.0000
  O   O3515     1.0  0.40185  0.34435  0.29373  1.0000
  O   O3516     1.0  0.43427  0.31887  0.29944  1.0000
  C   C1173     1.0  0.35803  0.01576  0.44197  1.0000
  O   O3517     1.0  0.34399  0.02539  0.42193  1.0000
  O   O3518     1.0  0.35547  0.02222  0.46912  1.0000
  O   O3519     1.0  0.37465  0.99968  0.43487  1.0000
  C   C1174     1.0  0.76793  0.95689  0.37603  1.0000
  O   O3520     1.0  0.78478  0.94761  0.35890  1.0000
  O   O3521     1.0  0.77143  0.97810  0.38739  1.0000
  O   O3522     1.0  0.74769  0.94486  0.38201  1.0000
  C   C1175     1.0  0.32845  0.43998  0.99830  1.0000
  O   O3523     1.0  0.34237  0.45903  0.00131  1.0000
  O   O3524     1.0  0.30602  0.43961  0.00927  1.0000
  O   O3525     1.0  0.33704  0.42122  0.98455  1.0000
  C   C1176     1.0  0.88269  0.59644  0.19897  1.0000
  O   O3526     1.0  0.89023  0.61659  0.18743  1.0000
  O   O3527     1.0  0.86071  0.59514  0.21102  1.0000
  O   O3528     1.0  0.89722  0.57765  0.19868  1.0000
  C   C1177     1.0  0.36390  0.73509  0.14507  1.0000
  O   O3529     1.0  0.34426  0.74110  0.16016  1.0000
  O   O3530     1.0  0.36946  0.74682  0.12135  1.0000
  O   O3531     1.0  0.37785  0.71723  0.15356  1.0000
  C   C1178     1.0  0.17764  0.42505  0.65263  1.0000
  O   O3532     1.0  0.15428  0.42919  0.65875  1.0000
  O   O3533     1.0  0.19168  0.44231  0.64264  1.0000
  O   O3534     1.0  0.18696  0.40364  0.65652  1.0000
  C   C1179     1.0  0.93541  0.56312  0.89374  1.0000
  O   O3535     1.0  0.92908  0.56036  0.86651  1.0000
  O   O3536     1.0  0.95752  0.55658  0.90253  1.0000
  O   O3537     1.0  0.91954  0.57221  0.91224  1.0000
  C   C1180     1.0  0.55819  0.48253  0.60137  1.0000
  O   O3538     1.0  0.55850  0.48016  0.62963  1.0000
  O   O3539     1.0  0.57875  0.48004  0.58649  1.0000
  O   O3540     1.0  0.53739  0.48764  0.58803  1.0000
  C   C1181     1.0  0.18987  0.65513  0.41543  1.0000
  O   O3541     1.0  0.18304  0.63327  0.42182  1.0000
  O   O3542     1.0  0.20947  0.66447  0.42786  1.0000
  O   O3543     1.0  0.17698  0.66772  0.39679  1.0000
  C   C1182     1.0  0.76086  0.27654  0.66141  1.0000
  O   O3544     1.0  0.78134  0.26668  0.67099  1.0000
  O   O3545     1.0  0.74033  0.26402  0.66023  1.0000
  O   O3546     1.0  0.76089  0.29896  0.65312  1.0000
  C   C1183     1.0  0.81590  0.85730  0.69539  1.0000
  O   O3547     1.0  0.82223  0.85261  0.72222  1.0000
  O   O3548     1.0  0.79483  0.84927  0.68507  1.0000
  O   O3549     1.0  0.83072  0.86987  0.67881  1.0000
  C   C1184     1.0  0.36463  0.76243  0.89351  1.0000
  O   O3550     1.0  0.36963  0.76682  0.86622  1.0000
  O   O3551     1.0  0.34176  0.76410  0.90297  1.0000
  O   O3552     1.0  0.38250  0.75644  0.91135  1.0000
  C   C1185     1.0  0.08792  0.69153  0.17729  1.0000
  O   O3553     1.0  0.08531  0.71383  0.18545  1.0000
  O   O3554     1.0  0.06957  0.67640  0.18060  1.0000
  O   O3555     1.0  0.10882  0.68439  0.16561  1.0000
  C   C1186     1.0  0.82297  0.30470  0.08896  1.0000
  O   O3556     1.0  0.82809  0.29613  0.06320  1.0000
  O   O3557     1.0  0.80305  0.29751  0.10273  1.0000
  O   O3558     1.0  0.83784  0.32036  0.10100  1.0000
  C   C1187     1.0  0.73827  0.57363  0.03821  1.0000
  O   O3559     1.0  0.75168  0.56063  0.02051  1.0000
  O   O3560     1.0  0.74584  0.57734  0.06483  1.0000
  O   O3561     1.0  0.71740  0.58309  0.02921  1.0000
  C   C1188     1.0  0.82387  0.03731  0.33864  1.0000
  O   O3562     1.0  0.84218  0.02992  0.35505  1.0000
  O   O3563     1.0  0.82840  0.05107  0.31626  1.0000
  O   O3564     1.0  0.80101  0.03109  0.34474  1.0000
  C   C1189     1.0  0.41526  0.65467  0.64857  1.0000
  O   O3565     1.0  0.41278  0.63146  0.64602  1.0000
  O   O3566     1.0  0.43054  0.66626  0.63150  1.0000
  O   O3567     1.0  0.40255  0.66629  0.66827  1.0000
  C   C1190     1.0  0.28908  0.80288  0.34069  1.0000
  O   O3568     1.0  0.28474  0.82392  0.35213  1.0000
  O   O3569     1.0  0.30841  0.79977  0.32386  1.0000
  O   O3570     1.0  0.27408  0.78498  0.34603  1.0000
  C   C1191     1.0  0.77196  0.72717  0.78605  1.0000
  O   O3571     1.0  0.75860  0.73289  0.80876  1.0000
  O   O3572     1.0  0.76635  0.73593  0.76053  1.0000
  O   O3573     1.0  0.79108  0.71288  0.78892  1.0000
  C   C1192     1.0  0.90553  0.33003  0.12906  1.0000
  O   O3574     1.0  0.92974  0.32828  0.12751  1.0000
  O   O3575     1.0  0.89512  0.35102  0.13253  1.0000
  O   O3576     1.0  0.89172  0.31081  0.12716  1.0000
  C   C1193     1.0  0.39167  0.61028  0.53769  1.0000
  O   O3577     1.0  0.40963  0.59893  0.52436  1.0000
  O   O3578     1.0  0.38078  0.60052  0.56016  1.0000
  O   O3579     1.0  0.38467  0.63143  0.52860  1.0000
  C   C1194     1.0  0.52759  0.37969  0.66244  1.0000
  O   O3580     1.0  0.50583  0.36947  0.66525  1.0000
  O   O3581     1.0  0.54512  0.37546  0.68144  1.0000
  O   O3582     1.0  0.53181  0.39413  0.64062  1.0000
  C   C1195     1.0  0.39840  0.81953  0.64195  1.0000
  O   O3583     1.0  0.39475  0.80152  0.62429  1.0000
  O   O3584     1.0  0.38001  0.82777  0.65763  1.0000
  O   O3585     1.0  0.42049  0.82917  0.64412  1.0000
  C   C1196     1.0  0.64231  0.87757  0.47322  1.0000
  O   O3586     1.0  0.65219  0.89870  0.46898  1.0000
  O   O3587     1.0  0.62203  0.87549  0.48873  1.0000
  O   O3588     1.0  0.65319  0.85843  0.46283  1.0000
  C   C1197     1.0  0.34874  0.88021  0.69351  1.0000
  O   O3589     1.0  0.33593  0.88907  0.67188  1.0000
  O   O3590     1.0  0.36213  0.89437  0.70987  1.0000
  O   O3591     1.0  0.34798  0.85722  0.69894  1.0000
  C   C1198     1.0  0.60341  0.62625  0.53182  1.0000
  O   O3592     1.0  0.59014  0.64163  0.54663  1.0000
  O   O3593     1.0  0.59379  0.60567  0.52423  1.0000
  O   O3594     1.0  0.62638  0.63137  0.52485  1.0000
  C   C1199     1.0  0.68934  0.85291  0.29205  1.0000
  O   O3595     1.0  0.68475  0.87349  0.30453  1.0000
  O   O3596     1.0  0.68398  0.84978  0.26460  1.0000
  O   O3597     1.0  0.69951  0.83553  0.30696  1.0000
  C   C1200     1.0  0.30922  0.31963  0.50075  1.0000
  O   O3598     1.0  0.32665  0.32767  0.48350  1.0000
  O   O3599     1.0  0.29266  0.33436  0.51143  1.0000
  O   O3600     1.0  0.30821  0.29681  0.50712  1.0000
  C   C1201     1.0  0.90622  0.04689  0.77116  1.0000
  O   O3601     1.0  0.88736  0.04824  0.75329  1.0000
  O   O3602     1.0  0.92325  0.03045  0.76739  1.0000
  O   O3603     1.0  0.90792  0.06183  0.79295  1.0000
  C   C1202     1.0  0.11111  0.31876  0.02428  1.0000
  O   O3604     1.0  0.12957  0.30445  0.03069  1.0000
  O   O3605     1.0  0.11407  0.34198  0.02592  1.0000
  O   O3606     1.0  0.08972  0.30986  0.01615  1.0000
  C   C1203     1.0  0.48583  0.77119  0.58550  1.0000
  O   O3607     1.0  0.50010  0.75222  0.58631  1.0000
  O   O3608     1.0  0.49528  0.79240  0.59039  1.0000
  O   O3609     1.0  0.46208  0.76892  0.58004  1.0000
  C   C1204     1.0  0.43623  0.56544  0.12990  1.0000
  O   O3610     1.0  0.42101  0.54835  0.13773  1.0000
  O   O3611     1.0  0.44330  0.56721  0.10280  1.0000
  O   O3612     1.0  0.44438  0.58077  0.14916  1.0000
  C   C1205     1.0  0.21225  0.66360  0.04494  1.0000
  O   O3613     1.0  0.21246  0.68680  0.04098  1.0000
  O   O3614     1.0  0.20074  0.65447  0.06738  1.0000
  O   O3615     1.0  0.22376  0.64954  0.02660  1.0000
  C   C1206     1.0  0.97822  0.94463  0.41719  1.0000
  O   O3616     1.0  0.99107  0.95111  0.39439  1.0000
  O   O3617     1.0  0.98443  0.92535  0.43161  1.0000
  O   O3618     1.0  0.95924  0.95750  0.42567  1.0000
  C   C1207     1.0  0.33624  0.46095  0.68605  1.0000
  O   O3619     1.0  0.32724  0.44219  0.67265  1.0000
  O   O3620     1.0  0.35945  0.46112  0.69455  1.0000
  O   O3621     1.0  0.32209  0.47961  0.69074  1.0000
  C   C1208     1.0  0.56868  0.84717  0.71620  1.0000
  O   O3622     1.0  0.59247  0.84331  0.71266  1.0000
  O   O3623     1.0  0.55967  0.86877  0.71290  1.0000
  O   O3624     1.0  0.55393  0.82949  0.72332  1.0000
  C   C1209     1.0  0.82924  0.95446  0.02267  1.0000
  O   O3625     1.0  0.82375  0.97695  0.02736  1.0000
  O   O3626     1.0  0.85185  0.94845  0.01515  1.0000
  O   O3627     1.0  0.81218  0.93795  0.02575  1.0000
  C   C1210     1.0  0.98945  0.30467  0.50883  1.0000
  O   O3628     1.0  0.98844  0.31243  0.53560  1.0000
  O   O3629     1.0  0.00506  0.28766  0.50181  1.0000
  O   O3630     1.0  0.97467  0.31374  0.48913  1.0000
  C   C1211     1.0  0.75149  0.11548  0.63276  1.0000
  O   O3631     1.0  0.76366  0.10270  0.65186  1.0000
  O   O3632     1.0  0.74084  0.13552  0.64062  1.0000
  O   O3633     1.0  0.74979  0.10812  0.60586  1.0000
  C   C1212     1.0  0.97302  0.18269  0.11062  1.0000
  O   O3634     1.0  0.99190  0.17256  0.09758  1.0000
  O   O3635     1.0  0.97187  0.20604  0.11264  1.0000
  O   O3636     1.0  0.95534  0.16946  0.12175  1.0000
  C   C1213     1.0  0.05441  0.93566  0.35982  1.0000
  O   O3637     1.0  0.05002  0.91271  0.35717  1.0000
  O   O3638     1.0  0.04531  0.95073  0.34084  1.0000
  O   O3639     1.0  0.06788  0.94353  0.38147  1.0000
  C   C1214     1.0  0.91174  0.32513  0.57067  1.0000
  O   O3640     1.0  0.89561  0.33730  0.55535  1.0000
  O   O3641     1.0  0.93080  0.33604  0.58236  1.0000
  O   O3642     1.0  0.90875  0.30208  0.57438  1.0000
  C   C1215     1.0  0.24355  0.24455  0.64692  1.0000
  O   O3643     1.0  0.26400  0.23200  0.64909  1.0000
  O   O3644     1.0  0.23841  0.25581  0.62273  1.0000
  O   O3645     1.0  0.22835  0.24604  0.66902  1.0000
  C   C1216     1.0  0.40404  0.90099  0.92745  1.0000
  O   O3646     1.0  0.40763  0.92401  0.93062  1.0000
  O   O3647     1.0  0.41061  0.89037  0.90331  1.0000
  O   O3648     1.0  0.39389  0.88857  0.94842  1.0000
  C   C1217     1.0  0.24923  0.47303  0.96772  1.0000
  O   O3649     1.0  0.26629  0.48657  0.97958  1.0000
  O   O3650     1.0  0.22636  0.47377  0.97734  1.0000
  O   O3651     1.0  0.25509  0.45860  0.94640  1.0000
  C   C1218     1.0  0.00804  0.21175  0.20586  1.0000
  O   O3652     1.0  0.00906  0.23450  0.19917  1.0000
  O   O3653     1.0  0.99428  0.19717  0.19048  1.0000
  O   O3654     1.0  0.02078  0.20357  0.22794  1.0000
  C   C1219     1.0  0.53286  0.86065  0.89078  1.0000
  O   O3655     1.0  0.52966  0.85525  0.91817  1.0000
  O   O3656     1.0  0.52985  0.84424  0.87081  1.0000
  O   O3657     1.0  0.53901  0.88248  0.88335  1.0000
  C   C1220     1.0  0.25824  0.87012  0.45107  1.0000
  O   O3658     1.0  0.25197  0.89191  0.45848  1.0000
  O   O3659     1.0  0.24104  0.85438  0.44479  1.0000
  O   O3660     1.0  0.28171  0.86401  0.45011  1.0000
  C   C1221     1.0  0.55071  0.33510  0.59473  1.0000
  O   O3661     1.0  0.55806  0.34144  0.56876  1.0000
  O   O3662     1.0  0.55851  0.34691  0.61751  1.0000
  O   O3663     1.0  0.53576  0.31681  0.59793  1.0000
  C   C1222     1.0  0.61944  0.80839  0.73798  1.0000
  O   O3664     1.0  0.63572  0.82334  0.72717  1.0000
  O   O3665     1.0  0.61221  0.81062  0.76497  1.0000
  O   O3666     1.0  0.61028  0.79130  0.72176  1.0000
  C   C1223     1.0  0.48547  0.19317  0.26972  1.0000
  O   O3667     1.0  0.48123  0.18687  0.24281  1.0000
  O   O3668     1.0  0.50656  0.20333  0.27670  1.0000
  O   O3669     1.0  0.46862  0.18930  0.28967  1.0000
  C   C1224     1.0  0.54459  0.68641  0.14804  1.0000
  O   O3670     1.0  0.53694  0.68964  0.12136  1.0000
  O   O3671     1.0  0.56840  0.68556  0.15370  1.0000
  O   O3672     1.0  0.52842  0.68423  0.16910  1.0000
  C   C1225     1.0  0.57497  0.30922  0.33292  1.0000
  O   O3673     1.0  0.55660  0.32428  0.33656  1.0000
  O   O3674     1.0  0.57616  0.28975  0.34867  1.0000
  O   O3675     1.0  0.59214  0.31362  0.31352  1.0000
  C   C1226     1.0  0.55349  0.24121  0.82431  1.0000
  O   O3676     1.0  0.57648  0.23543  0.83039  1.0000
  O   O3677     1.0  0.54887  0.25909  0.80676  1.0000
  O   O3678     1.0  0.53513  0.22911  0.83578  1.0000
  C   C1227     1.0  0.76210  0.64106  0.18653  1.0000
  O   O3679     1.0  0.76907  0.63361  0.21220  1.0000
  O   O3680     1.0  0.77222  0.66022  0.17522  1.0000
  O   O3681     1.0  0.74493  0.62940  0.17220  1.0000
  C   C1228     1.0  0.02476  0.10869  0.63933  1.0000
  O   O3682     1.0  0.00364  0.11463  0.65145  1.0000
  O   O3683     1.0  0.02511  0.09321  0.61802  1.0000
  O   O3684     1.0  0.04554  0.11811  0.64868  1.0000
  C   C1229     1.0  0.20047  0.15603  0.60138  1.0000
  O   O3685     1.0  0.21602  0.17331  0.60755  1.0000
  O   O3686     1.0  0.20796  0.13374  0.60194  1.0000
  O   O3687     1.0  0.17743  0.16104  0.59460  1.0000
  C   C1230     1.0  0.62609  0.68737  0.74667  1.0000
  O   O3688     1.0  0.62756  0.69047  0.77477  1.0000
  O   O3689     1.0  0.62804  0.70575  0.72919  1.0000
  O   O3690     1.0  0.62270  0.66589  0.73603  1.0000
  C   C1231     1.0  0.50573  0.00327  0.32124  1.0000
  O   O3691     1.0  0.50826  0.02439  0.30928  1.0000
  O   O3692     1.0  0.52468  0.98862  0.32240  1.0000
  O   O3693     1.0  0.48424  0.99678  0.33194  1.0000
  C   C1232     1.0  0.73787  0.18169  0.64938  1.0000
  O   O3694     1.0  0.75448  0.17983  0.67001  1.0000
  O   O3695     1.0  0.74478  0.18714  0.62295  1.0000
  O   O3696     1.0  0.71438  0.17794  0.65513  1.0000
  C   C1233     1.0  0.90578  0.98299  0.65738  1.0000
  O   O3697     1.0  0.90666  0.96163  0.64572  1.0000
  O   O3698     1.0  0.90029  0.00159  0.64135  1.0000
  O   O3699     1.0  0.91039  0.98573  0.68508  1.0000
  C   C1234     1.0  0.26528  0.91999  0.86289  1.0000
  O   O3700     1.0  0.25485  0.93750  0.87731  1.0000
  O   O3701     1.0  0.28764  0.91278  0.86984  1.0000
  O   O3702     1.0  0.25343  0.90983  0.84136  1.0000
  C   C1235     1.0  0.77527  0.52442  0.72273  1.0000
  O   O3703     1.0  0.77583  0.51131  0.74626  1.0000
  O   O3704     1.0  0.76853  0.51488  0.69800  1.0000
  O   O3705     1.0  0.78166  0.54701  0.72386  1.0000
  C   C1236     1.0  0.60197  0.31535  0.77278  1.0000
  O   O3706     1.0  0.60442  0.29294  0.76501  1.0000
  O   O3707     1.0  0.61770  0.33143  0.76332  1.0000
  O   O3708     1.0  0.58359  0.32175  0.78970  1.0000
  C   C1237     1.0  0.24644  0.87448  0.73149  1.0000
  O   O3709     1.0  0.25154  0.89496  0.74395  1.0000
  O   O3710     1.0  0.26439  0.86130  0.72091  1.0000
  O   O3711     1.0  0.22340  0.86708  0.72984  1.0000
  C   C1238     1.0  0.48951  0.31338  0.94595  1.0000
  O   O3712     1.0  0.50626  0.29672  0.94190  1.0000
  O   O3713     1.0  0.49637  0.33565  0.94968  1.0000
  O   O3714     1.0  0.46590  0.30777  0.94627  1.0000
  C   C1239     1.0  0.73618  0.32271  0.54668  1.0000
  O   O3715     1.0  0.72008  0.32862  0.56672  1.0000
  O   O3716     1.0  0.73682  0.30076  0.53676  1.0000
  O   O3717     1.0  0.75167  0.33874  0.53658  1.0000
  C   C1240     1.0  0.15429  0.49141  0.79417  1.0000
  O   O3718     1.0  0.17339  0.49603  0.81083  1.0000
  O   O3719     1.0  0.13683  0.50747  0.79071  1.0000
  O   O3720     1.0  0.15276  0.47081  0.78074  1.0000
  C   C1241     1.0  0.74247  0.43818  0.96211  1.0000
  O   O3721     1.0  0.76056  0.45276  0.96908  1.0000
  O   O3722     1.0  0.73920  0.41835  0.97675  1.0000
  O   O3723     1.0  0.72767  0.44344  0.94048  1.0000
  C   C1242     1.0  0.48589  0.97873  0.84722  1.0000
  O   O3724     1.0  0.48297  0.99424  0.82621  1.0000
  O   O3725     1.0  0.49557  0.98552  0.87195  1.0000
  O   O3726     1.0  0.47891  0.95648  0.84361  1.0000
  C   C1243     1.0  0.26009  0.78212  0.43233  1.0000
  O   O3727     1.0  0.25259  0.79157  0.40786  1.0000
  O   O3728     1.0  0.25998  0.79491  0.45613  1.0000
  O   O3729     1.0  0.26770  0.75987  0.43300  1.0000
  C   C1244     1.0  0.76972  0.02658  0.30013  1.0000
  O   O3730     1.0  0.76991  0.00321  0.29806  1.0000
  O   O3731     1.0  0.78540  0.03936  0.28491  1.0000
  O   O3732     1.0  0.75373  0.03717  0.31726  1.0000
  C   C1245     1.0  0.87929  0.06841  0.90398  1.0000
  O   O3733     1.0  0.87883  0.08271  0.88148  1.0000
  O   O3734     1.0  0.88204  0.04532  0.90027  1.0000
  O   O3735     1.0  0.87721  0.07720  0.93020  1.0000
  C   C1246     1.0  0.28179  0.09954  0.56816  1.0000
  O   O3736     1.0  0.30413  0.10230  0.55744  1.0000
  O   O3737     1.0  0.26801  0.11829  0.57373  1.0000
  O   O3738     1.0  0.27314  0.07801  0.57305  1.0000
  C   C1247     1.0  0.94524  0.21302  0.84902  1.0000
  O   O3739     1.0  0.95657  0.19349  0.84058  1.0000
  O   O3740     1.0  0.95141  0.22317  0.87359  1.0000
  O   O3741     1.0  0.92764  0.22231  0.83298  1.0000
  C   C1248     1.0  0.81548  0.95545  0.11910  1.0000
  O   O3742     1.0  0.81120  0.93538  0.10530  1.0000
  O   O3743     1.0  0.83004  0.97163  0.10759  1.0000
  O   O3744     1.0  0.80537  0.95923  0.14453  1.0000
  C   C1249     1.0  0.92625  0.02121  0.31455  1.0000
  O   O3745     1.0  0.93884  0.01510  0.33769  1.0000
  O   O3746     1.0  0.92910  0.04254  0.30326  1.0000
  O   O3747     1.0  0.91070  0.00603  0.30277  1.0000
  C   C1250     1.0  0.45843  0.95234  0.94900  1.0000
  O   O3748     1.0  0.44789  0.94264  0.97174  1.0000
  O   O3749     1.0  0.48236  0.94992  0.94486  1.0000
  O   O3750     1.0  0.44504  0.96448  0.93039  1.0000
  C   C1251     1.0  0.93333  0.09869  0.47558  1.0000
  O   O3751     1.0  0.95711  0.10065  0.47012  1.0000
  O   O3752     1.0  0.92565  0.08455  0.49638  1.0000
  O   O3753     1.0  0.91723  0.11092  0.46029  1.0000
  C   C1252     1.0  0.75819  0.35620  0.38741  1.0000
  O   O3754     1.0  0.75174  0.33784  0.40338  1.0000
  O   O3755     1.0  0.78144  0.36303  0.38650  1.0000
  O   O3756     1.0  0.74140  0.36768  0.37228  1.0000
  C   C1253     1.0  0.91439  0.23730  0.21392  1.0000
  O   O3757     1.0  0.93521  0.24530  0.22495  1.0000
  O   O3758     1.0  0.89692  0.25234  0.20629  1.0000
  O   O3759     1.0  0.91097  0.21425  0.21070  1.0000
  C   C1254     1.0  0.78498  0.40292  0.89441  1.0000
  O   O3760     1.0  0.80359  0.38892  0.90121  1.0000
  O   O3761     1.0  0.78501  0.41439  0.86964  1.0000
  O   O3762     1.0  0.76644  0.40562  0.91251  1.0000
  C   C1255     1.0  0.50231  0.26195  0.64695  1.0000
  O   O3763     1.0  0.50728  0.26836  0.62025  1.0000
  O   O3764     1.0  0.52044  0.25765  0.66514  1.0000
  O   O3765     1.0  0.47921  0.25962  0.65537  1.0000
  C   C1256     1.0  0.38901  0.91286  0.51870  1.0000
  O   O3766     1.0  0.41224  0.91061  0.52668  1.0000
  O   O3767     1.0  0.37117  0.90929  0.53753  1.0000
  O   O3768     1.0  0.38364  0.91963  0.49223  1.0000
  C   C1257     1.0  0.64755  0.06862  0.75121  1.0000
  O   O3769     1.0  0.64657  0.07528  0.77843  1.0000
  O   O3770     1.0  0.62700  0.06457  0.73683  1.0000
  O   O3771     1.0  0.66908  0.06583  0.73844  1.0000
  C   C1258     1.0  0.21691  0.95659  0.78242  1.0000
  O   O3772     1.0  0.20077  0.96359  0.80190  1.0000
  O   O3773     1.0  0.22656  0.93511  0.78395  1.0000
  O   O3774     1.0  0.22323  0.97098  0.76125  1.0000
  C   C1259     1.0  0.87641  0.60596  0.28287  1.0000
  O   O3775     1.0  0.88278  0.62002  0.26140  1.0000
  O   O3776     1.0  0.86647  0.58504  0.27750  1.0000
  O   O3777     1.0  0.88021  0.61272  0.30971  1.0000
  C   C1260     1.0  0.21485  0.11924  0.39427  1.0000
  O   O3778     1.0  0.20577  0.10691  0.41598  1.0000
  O   O3779     1.0  0.23026  0.10912  0.37603  1.0000
  O   O3780     1.0  0.20862  0.14172  0.39089  1.0000
  C   C1261     1.0  0.23991  0.41357  0.43656  1.0000
  O   O3781     1.0  0.23788  0.43664  0.44096  1.0000
  O   O3782     1.0  0.21993  0.40034  0.43422  1.0000
  O   O3783     1.0  0.26190  0.40376  0.43426  1.0000
  C   C1262     1.0  0.54438  0.98864  0.82958  1.0000
  O   O3784     1.0  0.56744  0.98797  0.82058  1.0000
  O   O3785     1.0  0.53510  0.00860  0.83978  1.0000
  O   O3786     1.0  0.53067  0.96930  0.82863  1.0000
  C   C1263     1.0  0.58600  0.28526  0.65824  1.0000
  O   O3787     1.0  0.57209  0.28096  0.68096  1.0000
  O   O3788     1.0  0.57784  0.28008  0.63222  1.0000
  O   O3789     1.0  0.60815  0.29453  0.66156  1.0000
  C   C1264     1.0  0.12954  0.57274  0.64625  1.0000
  O   O3790     1.0  0.11213  0.57910  0.62796  1.0000
  O   O3791     1.0  0.14159  0.55264  0.64239  1.0000
  O   O3792     1.0  0.13472  0.58637  0.66855  1.0000
  C   C1265     1.0  0.24152  0.10982  0.50141  1.0000
  O   O3793     1.0  0.24220  0.12232  0.47739  1.0000
  O   O3794     1.0  0.22017  0.10493  0.51365  1.0000
  O   O3795     1.0  0.26221  0.10239  0.51333  1.0000
  C   C1266     1.0  0.25479  0.47324  0.22992  1.0000
  O   O3796     1.0  0.25022  0.47096  0.20215  1.0000
  O   O3797     1.0  0.25704  0.49457  0.24137  1.0000
  O   O3798     1.0  0.25736  0.45418  0.24617  1.0000
  C   C1267     1.0  0.37147  0.85720  0.49098  1.0000
  O   O3799     1.0  0.39469  0.85072  0.48781  1.0000
  O   O3800     1.0  0.36205  0.87381  0.47422  1.0000
  O   O3801     1.0  0.35765  0.84701  0.51082  1.0000
  C   C1268     1.0  0.06189  0.37420  0.20013  1.0000
  O   O3802     1.0  0.05990  0.37619  0.22834  1.0000
  O   O3803     1.0  0.06966  0.39239  0.18469  1.0000
  O   O3804     1.0  0.05605  0.35404  0.18735  1.0000
  C   C1269     1.0  0.74980  0.25925  0.84548  1.0000
  O   O3805     1.0  0.77358  0.25845  0.83958  1.0000
  O   O3806     1.0  0.73985  0.27908  0.85518  1.0000
  O   O3807     1.0  0.73593  0.24029  0.84143  1.0000
  C   C1270     1.0  0.15797  0.84995  0.33543  1.0000
  O   O3808     1.0  0.16918  0.84538  0.36003  1.0000
  O   O3809     1.0  0.16076  0.83547  0.31334  1.0000
  O   O3810     1.0  0.14412  0.86909  0.33286  1.0000
  C   C1271     1.0  0.39296  0.32607  0.45380  1.0000
  O   O3811     1.0  0.40271  0.30883  0.46931  1.0000
  O   O3812     1.0  0.37496  0.32138  0.43557  1.0000
  O   O3813     1.0  0.40137  0.34796  0.45634  1.0000
  C   C1272     1.0  0.32716  0.54899  0.35273  1.0000
  O   O3814     1.0  0.30944  0.53309  0.35543  1.0000
  O   O3815     1.0  0.34840  0.54293  0.34099  1.0000
  O   O3816     1.0  0.32368  0.57092  0.36188  1.0000
  C   C1273     1.0  0.40608  0.56405  0.74503  1.0000
  O   O3817     1.0  0.42999  0.56688  0.74129  1.0000
  O   O3818     1.0  0.39089  0.58186  0.74005  1.0000
  O   O3819     1.0  0.39738  0.54349  0.75406  1.0000
  C   C1274     1.0  0.87871  0.59036  0.69380  1.0000
  O   O3820     1.0  0.88025  0.58166  0.66748  1.0000
  O   O3821     1.0  0.85719  0.59722  0.70409  1.0000
  O   O3822     1.0  0.89870  0.59219  0.70984  1.0000
  C   C1275     1.0  0.04219  0.97147  0.25071  1.0000
  O   O3823     1.0  0.03503  0.98975  0.23503  1.0000
  O   O3824     1.0  0.02700  0.96200  0.26970  1.0000
  O   O3825     1.0  0.06447  0.96251  0.24721  1.0000
  C   C1276     1.0  0.88457  0.54057  0.74502  1.0000
  O   O3826     1.0  0.90753  0.53977  0.75434  1.0000
  O   O3827     1.0  0.86920  0.55658  0.75540  1.0000
  O   O3828     1.0  0.87692  0.52520  0.72552  1.0000
  C   C1277     1.0  0.16996  0.53211  0.90012  1.0000
  O   O3829     1.0  0.17547  0.55491  0.90147  1.0000
  O   O3830     1.0  0.16680  0.52180  0.87487  1.0000
  O   O3831     1.0  0.16750  0.51966  0.92401  1.0000
  C   C1278     1.0  0.44388  0.40057  0.17946  1.0000
  O   O3832     1.0  0.44254  0.40545  0.15172  1.0000
  O   O3833     1.0  0.44326  0.41793  0.19854  1.0000
  O   O3834     1.0  0.44560  0.37832  0.18814  1.0000
  C   C1279     1.0  0.07969  0.00731  0.53212  1.0000
  O   O3835     1.0  0.09689  0.01321  0.55089  1.0000
  O   O3836     1.0  0.06086  0.02165  0.52754  1.0000
  O   O3837     1.0  0.08127  0.98702  0.51803  1.0000
  C   C1280     1.0  0.29584  0.60133  0.63046  1.0000
  O   O3838     1.0  0.28116  0.58771  0.64597  1.0000
  O   O3839     1.0  0.30750  0.61927  0.64264  1.0000
  O   O3840     1.0  0.29889  0.59697  0.60277  1.0000
  C   C1281     1.0  0.99965  0.25522  0.81367  1.0000
  O   O3841     1.0  0.00581  0.26262  0.78769  1.0000
  O   O3842     1.0  0.97914  0.24301  0.81745  1.0000
  O   O3843     1.0  0.01408  0.25987  0.83582  1.0000
  C   C1282     1.0  0.21619  0.49763  0.54262  1.0000
  O   O3844     1.0  0.23855  0.49723  0.55381  1.0000
  O   O3845     1.0  0.20222  0.51665  0.54564  1.0000
  O   O3846     1.0  0.20782  0.47903  0.52838  1.0000
  C   C1283     1.0  0.44448  0.07789  0.73916  1.0000
  O   O3847     1.0  0.46725  0.06971  0.74023  1.0000
  O   O3848     1.0  0.43732  0.09101  0.71716  1.0000
  O   O3849     1.0  0.42882  0.07282  0.76001  1.0000
  C   C1284     1.0  0.97949  0.47276  0.45555  1.0000
  O   O3850     1.0  0.96314  0.47862  0.43576  1.0000
  O   O3851     1.0  0.97700  0.45276  0.47005  1.0000
  O   O3852     1.0  0.99844  0.48683  0.46069  1.0000
  C   C1285     1.0  0.88239  0.95329  0.10226  1.0000
  O   O3853     1.0  0.89065  0.96108  0.12726  1.0000
  O   O3854     1.0  0.87815  0.93042  0.09850  1.0000
  O   O3855     1.0  0.87858  0.96833  0.08094  1.0000
  C   C1286     1.0  0.41454  0.56963  0.62629  1.0000
  O   O3856     1.0  0.43643  0.57931  0.62235  1.0000
  O   O3857     1.0  0.39514  0.58325  0.63084  1.0000
  O   O3858     1.0  0.41205  0.54633  0.62566  1.0000
  C   C1287     1.0  0.58511  0.96353  0.49690  1.0000
  O   O3859     1.0  0.60832  0.96335  0.50538  1.0000
  O   O3860     1.0  0.56750  0.96926  0.51523  1.0000
  O   O3861     1.0  0.57952  0.95819  0.47001  1.0000
  C   C1288     1.0  0.33483  0.04567  0.31036  1.0000
  O   O3862     1.0  0.34650  0.02977  0.29455  1.0000
  O   O3863     1.0  0.31079  0.04842  0.30761  1.0000
  O   O3864     1.0  0.34721  0.05886  0.32885  1.0000
  C   C1289     1.0  0.05590  0.60456  0.63194  1.0000
  O   O3865     1.0  0.06592  0.60148  0.65756  1.0000
  O   O3866     1.0  0.06218  0.62306  0.61611  1.0000
  O   O3867     1.0  0.03964  0.58914  0.62214  1.0000
  C   C1290     1.0  0.12331  0.99315  0.95664  1.0000
  O   O3868     1.0  0.13433  0.97240  0.95369  1.0000
  O   O3869     1.0  0.13493  0.01088  0.96934  1.0000
  O   O3870     1.0  0.10078  0.99624  0.94665  1.0000
  C   C1291     1.0  0.28148  0.76020  0.54852  1.0000
  O   O3871     1.0  0.28856  0.73949  0.55893  1.0000
  O   O3872     1.0  0.29629  0.77874  0.55023  1.0000
  O   O3873     1.0  0.25966  0.76235  0.53625  1.0000
  C   C1292     1.0  0.70428  0.17728  0.73839  1.0000
  O   O3874     1.0  0.72353  0.16306  0.74049  1.0000
  O   O3875     1.0  0.68284  0.17074  0.74920  1.0000
  O   O3876     1.0  0.70643  0.19796  0.72526  1.0000
  C   C1293     1.0  0.85694  0.87736  0.54151  1.0000
  O   O3877     1.0  0.83655  0.88848  0.54912  1.0000
  O   O3878     1.0  0.85573  0.85814  0.52532  1.0000
  O   O3879     1.0  0.87855  0.88547  0.55006  1.0000
  C   C1294     1.0  0.45998  0.82882  0.49247  1.0000
  O   O3880     1.0  0.48040  0.81611  0.49341  1.0000
  O   O3881     1.0  0.46118  0.85204  0.48893  1.0000
  O   O3882     1.0  0.43836  0.81831  0.49515  1.0000
  C   C1295     1.0  0.71588  0.46685  0.72697  1.0000
  O   O3883     1.0  0.73687  0.47598  0.73611  1.0000
  O   O3884     1.0  0.70459  0.47617  0.70449  1.0000
  O   O3885     1.0  0.70630  0.44826  0.74015  1.0000
  C   C1296     1.0  0.07706  0.85435  0.74184  1.0000
  O   O3886     1.0  0.07587  0.87309  0.75884  1.0000
  O   O3887     1.0  0.07989  0.83297  0.75301  1.0000
  O   O3888     1.0  0.07519  0.85696  0.71369  1.0000
  C   C1297     1.0  0.93262  0.44725  0.70466  1.0000
  O   O3889     1.0  0.94520  0.46091  0.72247  1.0000
  O   O3890     1.0  0.91219  0.45524  0.69268  1.0000
  O   O3891     1.0  0.94060  0.42568  0.69862  1.0000
  C   C1298     1.0  0.17980  0.69671  0.88029  1.0000
  O   O3892     1.0  0.18218  0.68513  0.90483  1.0000
  O   O3893     1.0  0.17397  0.68511  0.85657  1.0000
  O   O3894     1.0  0.18304  0.71993  0.87952  1.0000
  C   C1299     1.0  0.56694  0.88146  0.98815  1.0000
  O   O3895     1.0  0.57450  0.87245  0.01285  1.0000
  O   O3896     1.0  0.57434  0.90279  0.98016  1.0000
  O   O3897     1.0  0.55195  0.86916  0.97148  1.0000
  C   C1300     1.0  0.01615  0.29147  0.98423  1.0000
  O   O3898     1.0  0.02972  0.28651  0.96144  1.0000
  O   O3899     1.0  0.02261  0.30894  0.00159  1.0000
  O   O3900     1.0  0.99600  0.27910  0.98952  1.0000
  C   C1301     1.0  0.46017  0.80433  0.06629  1.0000
  O   O3901     1.0  0.46379  0.81938  0.08765  1.0000
  O   O3902     1.0  0.43790  0.80165  0.05533  1.0000
  O   O3903     1.0  0.47885  0.79215  0.05569  1.0000
  C   C1302     1.0  0.34368  0.54152  0.00448  1.0000
  O   O3904     1.0  0.32444  0.54578  0.02106  1.0000
  O   O3905     1.0  0.35147  0.51953  0.00079  1.0000
  O   O3906     1.0  0.35503  0.55923  0.99142  1.0000
  C   C1303     1.0  0.57444  0.27293  0.45141  1.0000
  O   O3907     1.0  0.58697  0.25405  0.44310  1.0000
  O   O3908     1.0  0.57473  0.27949  0.47868  1.0000
  O   O3909     1.0  0.56141  0.28511  0.43249  1.0000
  C   C1304     1.0  0.73856  0.37389  0.87329  1.0000
  O   O3910     1.0  0.72719  0.39434  0.86930  1.0000
  O   O3911     1.0  0.73929  0.36428  0.89919  1.0000
  O   O3912     1.0  0.74937  0.36315  0.85143  1.0000
  C   C1305     1.0  0.86084  0.42300  0.20610  1.0000
  O   O3913     1.0  0.87050  0.42888  0.23118  1.0000
  O   O3914     1.0  0.85398  0.43970  0.18786  1.0000
  O   O3915     1.0  0.85824  0.40042  0.19916  1.0000
  C   C1306     1.0  0.52145  0.59667  0.82542  1.0000
  O   O3916     1.0  0.51413  0.57774  0.81102  1.0000
  O   O3917     1.0  0.54426  0.60445  0.82259  1.0000
  O   O3918     1.0  0.50589  0.60793  0.84246  1.0000
  C   C1307     1.0  0.27637  0.81960  0.81484  1.0000
  O   O3919     1.0  0.28034  0.81344  0.84186  1.0000
  O   O3920     1.0  0.29449  0.82852  0.79927  1.0000
  O   O3921     1.0  0.25430  0.81682  0.80339  1.0000
  C   C1308     1.0  0.09351  0.68350  0.41660  1.0000
  O   O3922     1.0  0.09789  0.70197  0.43330  1.0000
  O   O3923     1.0  0.08741  0.68673  0.38937  1.0000
  O   O3924     1.0  0.09507  0.66180  0.42715  1.0000
  C   C1309     1.0  0.70112  0.08931  0.23482  1.0000
  O   O3925     1.0  0.71304  0.09073  0.25953  1.0000
  O   O3926     1.0  0.68933  0.10801  0.22467  1.0000
  O   O3927     1.0  0.70096  0.06917  0.22030  1.0000
  C   C1310     1.0  0.41785  0.94245  0.14635  1.0000
  O   O3928     1.0  0.43694  0.92806  0.14401  1.0000
  O   O3929     1.0  0.41839  0.96013  0.16498  1.0000
  O   O3930     1.0  0.39822  0.93914  0.13007  1.0000
  C   C1311     1.0  0.58037  0.83277  0.23579  1.0000
  O   O3931     1.0  0.60156  0.82551  0.24659  1.0000
  O   O3932     1.0  0.57613  0.85568  0.23242  1.0000
  O   O3933     1.0  0.56333  0.81714  0.22860  1.0000
  C   C1312     1.0  0.54534  0.37103  0.49644  1.0000
  O   O3934     1.0  0.56305  0.36756  0.51546  1.0000
  O   O3935     1.0  0.55031  0.38157  0.47174  1.0000
  O   O3936     1.0  0.52270  0.36384  0.50206  1.0000
  C   C1313     1.0  0.49163  0.19565  0.52482  1.0000
  O   O3937     1.0  0.47808  0.21048  0.54009  1.0000
  O   O3938     1.0  0.49117  0.17271  0.53059  1.0000
  O   O3939     1.0  0.50583  0.20378  0.50396  1.0000
  C   C1314     1.0  0.98156  0.71849  0.13026  1.0000
  O   O3940     1.0  0.98619  0.71104  0.15665  1.0000
  O   O3941     1.0  0.95866  0.72286  0.12227  1.0000
  O   O3942     1.0  0.99979  0.72135  0.11178  1.0000
  C   C1315     1.0  0.92871  0.97143  0.57046  1.0000
  O   O3943     1.0  0.94988  0.96630  0.58298  1.0000
  O   O3944     1.0  0.92760  0.98850  0.55104  1.0000
  O   O3945     1.0  0.90863  0.95952  0.57741  1.0000
  C   C1316     1.0  0.83007  0.63975  0.80590  1.0000
  O   O3946     1.0  0.85284  0.63210  0.80222  1.0000
  O   O3947     1.0  0.82591  0.66246  0.81097  1.0000
  O   O3948     1.0  0.81145  0.62475  0.80421  1.0000
  C   C1317     1.0  0.69797  0.71680  0.55885  1.0000
  O   O3949     1.0  0.71163  0.70303  0.57540  1.0000
  O   O3950     1.0  0.67386  0.71753  0.56251  1.0000
  O   O3951     1.0  0.70844  0.72998  0.53880  1.0000
  C   C1318     1.0  0.31635  0.57486  0.08954  1.0000
  O   O3952     1.0  0.33700  0.56847  0.10241  1.0000
  O   O3953     1.0  0.31570  0.59438  0.07385  1.0000
  O   O3954     1.0  0.29640  0.56165  0.09225  1.0000
  C   C1319     1.0  0.16350  0.47675  0.07467  1.0000
  O   O3955     1.0  0.15082  0.48880  0.05533  1.0000
  O   O3956     1.0  0.15201  0.46643  0.09636  1.0000
  O   O3957     1.0  0.18770  0.47520  0.07248  1.0000
  C   C1320     1.0  0.13572  0.75334  0.94333  1.0000
  O   O3958     1.0  0.13685  0.73721  0.92276  1.0000
  O   O3959     1.0  0.15459  0.75635  0.96089  1.0000
  O   O3960     1.0  0.11577  0.76652  0.94627  1.0000
  C   C1321     1.0  0.72601  0.11861  0.14175  1.0000
  O   O3961     1.0  0.72598  0.09524  0.14388  1.0000
  O   O3962     1.0  0.71845  0.13172  0.16358  1.0000
  O   O3963     1.0  0.73343  0.12886  0.11772  1.0000
  C   C1322     1.0  0.82935  0.75853  0.82893  1.0000
  O   O3964     1.0  0.83099  0.74043  0.84688  1.0000
  O   O3965     1.0  0.82486  0.78005  0.83890  1.0000
  O   O3966     1.0  0.83243  0.75515  0.80105  1.0000
  C   C1323     1.0  0.25417  0.83450  0.29100  1.0000
  O   O3967     1.0  0.24880  0.81814  0.31034  1.0000
  O   O3968     1.0  0.23636  0.84486  0.27628  1.0000
  O   O3969     1.0  0.27733  0.84067  0.28657  1.0000
  C   C1324     1.0  0.32212  0.15206  0.72203  1.0000
  O   O3970     1.0  0.33692  0.14812  0.74405  1.0000
  O   O3971     1.0  0.30856  0.17151  0.72127  1.0000
  O   O3972     1.0  0.32106  0.13670  0.70062  1.0000
  C   C1325     1.0  0.03689  0.91303  0.18135  1.0000
  O   O3973     1.0  0.03712  0.91770  0.15351  1.0000
  O   O3974     1.0  0.04239  0.92985  0.20006  1.0000
  O   O3975     1.0  0.03133  0.89149  0.19047  1.0000
  C   C1326     1.0  0.33452  0.99465  0.21471  1.0000
  O   O3976     1.0  0.35837  0.99033  0.21651  1.0000
  O   O3977     1.0  0.32669  0.01579  0.20656  1.0000
  O   O3978     1.0  0.31848  0.97789  0.22131  1.0000
  C   C1327     1.0  0.04742  0.45232  0.37740  1.0000
  O   O3979     1.0  0.06128  0.46294  0.39687  1.0000
  O   O3980     1.0  0.03477  0.46510  0.35872  1.0000
  O   O3981     1.0  0.04629  0.42893  0.37653  1.0000
  C   C1328     1.0  0.24771  0.41522  0.82666  1.0000
  O   O3982     1.0  0.26725  0.42877  0.83074  1.0000
  O   O3983     1.0  0.22576  0.42498  0.82357  1.0000
  O   O3984     1.0  0.25016  0.39193  0.82540  1.0000
  C   C1329     1.0  0.08029  0.49925  0.64408  1.0000
  O   O3985     1.0  0.09275  0.48682  0.66326  1.0000
  O   O3986     1.0  0.09059  0.51780  0.63158  1.0000
  O   O3987     1.0  0.05750  0.49315  0.63744  1.0000
  C   C1330     1.0  0.54511  0.61735  0.31808  1.0000
  O   O3988     1.0  0.54480  0.60471  0.34201  1.0000
  O   O3989     1.0  0.55051  0.64018  0.31903  1.0000
  O   O3990     1.0  0.53982  0.60719  0.29324  1.0000
  C   C1331     1.0  0.92863  0.57309  0.55226  1.0000
  O   O3991     1.0  0.91799  0.55554  0.53812  1.0000
  O   O3992     1.0  0.92472  0.57567  0.58012  1.0000
  O   O3993     1.0  0.94332  0.58797  0.53857  1.0000
  C   C1332     1.0  0.07953  0.43712  0.06547  1.0000
  O   O3994     1.0  0.06613  0.45323  0.07890  1.0000
  O   O3995     1.0  0.06866  0.41999  0.05082  1.0000
  O   O3996     1.0  0.10381  0.43827  0.06645  1.0000
  C   C1333     1.0  0.39853  0.52794  0.29873  1.0000
  O   O3997     1.0  0.40869  0.52765  0.27292  1.0000
  O   O3998     1.0  0.39427  0.50781  0.31241  1.0000
  O   O3999     1.0  0.39265  0.54835  0.31087  1.0000
  C   C1334     1.0  0.29598  0.20757  0.18021  1.0000
  O   O4000     1.0  0.31431  0.19351  0.18782  1.0000
  O   O4001     1.0  0.27691  0.21038  0.19752  1.0000
  O   O4002     1.0  0.29666  0.21873  0.15524  1.0000
  C   C1335     1.0  0.61231  0.14280  0.95012  1.0000
  O   O4003     1.0  0.59568  0.13249  0.96666  1.0000
  O   O4004     1.0  0.61642  0.16581  0.95245  1.0000
  O   O4005     1.0  0.62482  0.13010  0.93124  1.0000
  C   C1336     1.0  0.04664  0.00822  0.31539  1.0000
  O   O4006     1.0  0.05577  0.02222  0.33552  1.0000
  O   O4007     1.0  0.06021  0.00239  0.29290  1.0000
  O   O4008     1.0  0.02403  0.99983  0.31791  1.0000
  C   C1337     1.0  0.89260  0.39833  0.62045  1.0000
  O   O4009     1.0  0.88023  0.38139  0.63375  1.0000
  O   O4010     1.0  0.89296  0.42002  0.63117  1.0000
  O   O4011     1.0  0.90476  0.39352  0.59655  1.0000
  C   C1338     1.0  0.10582  0.14420  0.67972  1.0000
  O   O4012     1.0  0.09347  0.13853  0.65623  1.0000
  O   O4013     1.0  0.11720  0.16486  0.68140  1.0000
  O   O4014     1.0  0.10698  0.12912  0.70142  1.0000
  C   C1339     1.0  0.99981  0.82215  0.26384  1.0000
  O   O4015     1.0  0.02141  0.82197  0.25079  1.0000
  O   O4016     1.0  0.97939  0.82429  0.24862  1.0000
  O   O4017     1.0  0.99863  0.82043  0.29214  1.0000
  C   C1340     1.0  0.72055  0.20194  0.53577  1.0000
  O   O4018     1.0  0.73675  0.21913  0.53196  1.0000
  O   O4019     1.0  0.71716  0.19283  0.56165  1.0000
  O   O4020     1.0  0.70759  0.19399  0.51375  1.0000
  C   C1341     1.0  0.08755  0.19574  0.85889  1.0000
  O   O4021     1.0  0.08934  0.21779  0.84951  1.0000
  O   O4022     1.0  0.10366  0.18752  0.87770  1.0000
  O   O4023     1.0  0.06975  0.18186  0.84933  1.0000
  C   C1342     1.0  0.63605  0.40653  0.78186  1.0000
  O   O4024     1.0  0.64465  0.42219  0.76326  1.0000
  O   O4025     1.0  0.63906  0.38362  0.77710  1.0000
  O   O4026     1.0  0.62423  0.41379  0.80508  1.0000
  C   C1343     1.0  0.89884  0.69713  0.32228  1.0000
  O   O4027     1.0  0.91105  0.71541  0.31167  1.0000
  O   O4028     1.0  0.89741  0.69411  0.35040  1.0000
  O   O4029     1.0  0.88825  0.68176  0.30477  1.0000
  C   C1344     1.0  0.64116  0.56056  0.89834  1.0000
  O   O4030     1.0  0.63144  0.54038  0.88945  1.0000
  O   O4031     1.0  0.62803  0.57526  0.91430  1.0000
  O   O4032     1.0  0.66406  0.56600  0.89141  1.0000
  C   C1345     1.0  0.46062  0.49452  0.66226  1.0000
  O   O4033     1.0  0.48231  0.50026  0.67309  1.0000
  O   O4034     1.0  0.44852  0.50987  0.64611  1.0000
  O   O4035     1.0  0.45096  0.47351  0.66779  1.0000
  C   C1346     1.0  0.83950  0.24609  0.13467  1.0000
  O   O4036     1.0  0.82257  0.23609  0.15108  1.0000
  O   O4037     1.0  0.84204  0.26940  0.13453  1.0000
  O   O4038     1.0  0.85391  0.23278  0.11844  1.0000
  C   C1347     1.0  0.18056  0.67916  0.98453  1.0000
  O   O4039     1.0  0.20037  0.66927  0.97320  1.0000
  O   O4040     1.0  0.16648  0.66690  0.00229  1.0000
  O   O4041     1.0  0.17471  0.70123  0.97786  1.0000
  C   C1348     1.0  0.26342  0.03422  0.49773  1.0000
  O   O4042     1.0  0.28294  0.02694  0.48325  1.0000
  O   O4043     1.0  0.26615  0.04430  0.52317  1.0000
  O   O4044     1.0  0.24119  0.03161  0.48664  1.0000
  C   C1349     1.0  0.52320  0.15163  0.39763  1.0000
  O   O4045     1.0  0.53868  0.13618  0.40902  1.0000
  O   O4046     1.0  0.53031  0.17372  0.39305  1.0000
  O   O4047     1.0  0.50062  0.14498  0.39081  1.0000
  C   C1350     1.0  0.04491  0.12339  0.26310  1.0000
  O   O4048     1.0  0.02727  0.13588  0.25072  1.0000
  O   O4049     1.0  0.06639  0.12083  0.25013  1.0000
  O   O4050     1.0  0.04115  0.11363  0.28855  1.0000
  C   C1351     1.0  0.72249  0.70136  0.79683  1.0000
  O   O4051     1.0  0.72336  0.69197  0.82284  1.0000
  O   O4052     1.0  0.70570  0.71753  0.79067  1.0000
  O   O4053     1.0  0.73846  0.69462  0.77702  1.0000
  C   C1352     1.0  0.87065  0.31655  0.03282  1.0000
  O   O4054     1.0  0.87246  0.32719  0.05804  1.0000
  O   O4055     1.0  0.86460  0.32892  0.00975  1.0000
  O   O4056     1.0  0.87467  0.29351  0.03072  1.0000
  C   C1353     1.0  0.33156  0.36661  0.84144  1.0000
  O   O4057     1.0  0.35363  0.37459  0.83444  1.0000
  O   O4058     1.0  0.32932  0.34652  0.85582  1.0000
  O   O4059     1.0  0.31173  0.37876  0.83411  1.0000
  C   C1354     1.0  0.50535  0.91782  0.80175  1.0000
  O   O4060     1.0  0.52606  0.91505  0.81626  1.0000
  O   O4061     1.0  0.50586  0.92657  0.77540  1.0000
  O   O4062     1.0  0.48413  0.91185  0.81360  1.0000
  C   C1355     1.0  0.68223  0.36141  0.47018  1.0000
  O   O4063     1.0  0.70071  0.36053  0.45175  1.0000
  O   O4064     1.0  0.68393  0.37474  0.49347  1.0000
  O   O4065     1.0  0.66197  0.34911  0.46522  1.0000
  C   C1356     1.0  0.18768  0.14633  0.90520  1.0000
  O   O4066     1.0  0.21181  0.14932  0.90535  1.0000
  O   O4067     1.0  0.17357  0.16073  0.89001  1.0000
  O   O4068     1.0  0.17769  0.12882  0.92003  1.0000
  C   C1357     1.0  0.29474  0.66418  0.79417  1.0000
  O   O4069     1.0  0.28325  0.68483  0.79492  1.0000
  O   O4070     1.0  0.31435  0.66142  0.77770  1.0000
  O   O4071     1.0  0.28648  0.64624  0.80969  1.0000
  C   C1358     1.0  0.07061  0.06335  0.04381  1.0000
  O   O4072     1.0  0.07599  0.04415  0.05884  1.0000
  O   O4073     1.0  0.08617  0.07125  0.02419  1.0000
  O   O4074     1.0  0.04978  0.07478  0.04861  1.0000
  C   C1359     1.0  0.02040  0.66158  0.80116  1.0000
  O   O4075     1.0  0.04363  0.66148  0.79276  1.0000
  O   O4076     1.0  0.01493  0.65883  0.82864  1.0000
  O   O4077     1.0  0.00263  0.66437  0.78206  1.0000
  C   C1360     1.0  0.49424  0.29103  0.30750  1.0000
  O   O4078     1.0  0.51288  0.27846  0.31755  1.0000
  O   O4079     1.0  0.49822  0.31212  0.29604  1.0000
  O   O4080     1.0  0.47165  0.28241  0.30868  1.0000
  C   C1361     1.0  0.97462  0.06587  0.05289  1.0000
  O   O4081     1.0  0.98213  0.04362  0.05138  1.0000
  O   O4082     1.0  0.98982  0.08256  0.06196  1.0000
  O   O4083     1.0  0.95196  0.07146  0.04510  1.0000
  C   C1362     1.0  0.47665  0.43384  0.86551  1.0000
  O   O4084     1.0  0.49553  0.44861  0.86584  1.0000
  O   O4085     1.0  0.45393  0.44219  0.86637  1.0000
  O   O4086     1.0  0.48048  0.41072  0.86430  1.0000
  C   C1363     1.0  0.50512  0.81296  0.99066  1.0000
  O   O4087     1.0  0.51468  0.82770  0.97161  1.0000
  O   O4088     1.0  0.51846  0.80571  0.01273  1.0000
  O   O4089     1.0  0.48215  0.80564  0.98778  1.0000
  C   C1364     1.0  0.00691  0.36187  0.87941  1.0000
  O   O4090     1.0  0.02825  0.37177  0.87299  1.0000
  O   O4091     1.0  0.98679  0.37500  0.88077  1.0000
  O   O4092     1.0  0.00567  0.33884  0.88446  1.0000
  C   C1365     1.0  0.98948  0.55837  0.43565  1.0000
  O   O4093     1.0  0.99044  0.54283  0.45689  1.0000
  O   O4094     1.0  0.00658  0.57493  0.43340  1.0000
  O   O4095     1.0  0.97129  0.55749  0.41683  1.0000
  C   C1366     1.0  0.44166  0.62513  0.56344  1.0000
  O   O4096     1.0  0.44458  0.64098  0.54279  1.0000
  O   O4097     1.0  0.42689  0.62972  0.58531  1.0000
  O   O4098     1.0  0.45373  0.60481  0.56238  1.0000
  C   C1367     1.0  0.96076  0.04231  0.11002  1.0000
  O   O4099     1.0  0.98187  0.05346  0.11407  1.0000
  O   O4100     1.0  0.93975  0.05342  0.11488  1.0000
  O   O4101     1.0  0.96065  0.02007  0.10108  1.0000
  C   C1368     1.0  0.16009  0.48384  0.38063  1.0000
  O   O4102     1.0  0.17918  0.47515  0.39471  1.0000
  O   O4103     1.0  0.13996  0.47094  0.37750  1.0000
  O   O4104     1.0  0.16104  0.50551  0.36988  1.0000
  C   C1369     1.0  0.30541  0.59174  0.80762  1.0000
  O   O4105     1.0  0.31529  0.59581  0.78213  1.0000
  O   O4106     1.0  0.28164  0.59535  0.81173  1.0000
  O   O4107     1.0  0.31928  0.58394  0.82895  1.0000
  C   C1370     1.0  0.81408  0.57368  0.93098  1.0000
  O   O4108     1.0  0.83811  0.57726  0.93060  1.0000
  O   O4109     1.0  0.80041  0.58365  0.95113  1.0000
  O   O4110     1.0  0.80369  0.56029  0.91107  1.0000
  C   C1371     1.0  0.93167  0.14692  0.77463  1.0000
  O   O4111     1.0  0.91117  0.14571  0.75940  1.0000
  O   O4112     1.0  0.93658  0.13048  0.79403  1.0000
  O   O4113     1.0  0.94728  0.16455  0.77039  1.0000
  C   C1372     1.0  0.92243  0.27173  0.27428  1.0000
  O   O4114     1.0  0.94387  0.26256  0.28180  1.0000
  O   O4115     1.0  0.92159  0.28967  0.25603  1.0000
  O   O4116     1.0  0.90183  0.26281  0.28482  1.0000
  C   C1373     1.0  0.29193  0.09765  0.21601  1.0000
  O   O4117     1.0  0.29324  0.12040  0.20938  1.0000
  O   O4118     1.0  0.27130  0.08579  0.21156  1.0000
  O   O4119     1.0  0.31127  0.08674  0.22704  1.0000
  C   C1374     1.0  0.58437  0.78640  0.81423  1.0000
  O   O4120     1.0  0.59580  0.79938  0.83376  1.0000
  O   O4121     1.0  0.56265  0.79311  0.80435  1.0000
  O   O4122     1.0  0.59471  0.76678  0.80448  1.0000
  C   C1375     1.0  0.20433  0.74276  0.79528  1.0000
  O   O4123     1.0  0.21756  0.74552  0.77167  1.0000
  O   O4124     1.0  0.18745  0.75863  0.80220  1.0000
  O   O4125     1.0  0.20783  0.72400  0.81182  1.0000
  C   C1376     1.0  0.17979  0.39675  0.82981  1.0000
  O   O4126     1.0  0.19469  0.37823  0.82958  1.0000
  O   O4127     1.0  0.17524  0.40838  0.80572  1.0000
  O   O4128     1.0  0.16928  0.40353  0.85408  1.0000
  C   C1377     1.0  0.78465  0.22644  0.78154  1.0000
  O   O4129     1.0  0.77755  0.20793  0.76622  1.0000
  O   O4130     1.0  0.77590  0.24774  0.77559  1.0000
  O   O4131     1.0  0.80036  0.22362  0.80296  1.0000
  C   C1378     1.0  0.31738  0.47403  0.60120  1.0000
  O   O4132     1.0  0.31290  0.49641  0.60779  1.0000
  O   O4133     1.0  0.30048  0.46129  0.58783  1.0000
  O   O4134     1.0  0.33881  0.46441  0.60787  1.0000
  C   C1379     1.0  0.20020  0.79058  0.25091  1.0000
  O   O4135     1.0  0.21659  0.78725  0.27151  1.0000
  O   O4136     1.0  0.17696  0.79480  0.25755  1.0000
  O   O4137     1.0  0.20702  0.78954  0.22367  1.0000
  C   C1380     1.0  0.44556  0.08360  0.97885  1.0000
  O   O4138     1.0  0.45351  0.09170  0.95386  1.0000
  O   O4139     1.0  0.43655  0.09844  0.99816  1.0000
  O   O4140     1.0  0.44683  0.06069  0.98464  1.0000
  C   C1381     1.0  0.43140  0.66005  0.36297  1.0000
  O   O4141     1.0  0.41907  0.64369  0.37733  1.0000
  O   O4142     1.0  0.45569  0.66053  0.36414  1.0000
  O   O4143     1.0  0.41943  0.67600  0.34756  1.0000
  C   C1382     1.0  0.25176  0.40178  0.58151  1.0000
  O   O4144     1.0  0.27505  0.39538  0.58410  1.0000
  O   O4145     1.0  0.24444  0.42263  0.59125  1.0000
  O   O4146     1.0  0.23584  0.38743  0.56892  1.0000
  C   C1383     1.0  0.08253  0.71120  0.75907  1.0000
  O   O4147     1.0  0.06699  0.71568  0.73790  1.0000
  O   O4148     1.0  0.08358  0.72551  0.78154  1.0000
  O   O4149     1.0  0.09702  0.69241  0.75778  1.0000
  C   C1384     1.0  0.46790  0.14888  0.16345  1.0000
  O   O4150     1.0  0.46634  0.16299  0.18606  1.0000
  O   O4151     1.0  0.48669  0.13415  0.16088  1.0000
  O   O4152     1.0  0.45080  0.14966  0.14328  1.0000
  C   C1385     1.0  0.55882  0.61606  0.90249  1.0000
  O   O4153     1.0  0.53923  0.62405  0.88873  1.0000
  O   O4154     1.0  0.58109  0.62093  0.89272  1.0000
  O   O4155     1.0  0.55614  0.60332  0.92613  1.0000
  C   C1386     1.0  0.81788  0.23812  0.92282  1.0000
  O   O4156     1.0  0.81290  0.21663  0.91311  1.0000
  O   O4157     1.0  0.79982  0.25334  0.92751  1.0000
  O   O4158     1.0  0.84093  0.24447  0.92760  1.0000
  C   C1387     1.0  0.16993  0.42213  0.57895  1.0000
  O   O4159     1.0  0.19330  0.42849  0.57727  1.0000
  O   O4160     1.0  0.15268  0.43841  0.58234  1.0000
  O   O4161     1.0  0.16382  0.39950  0.57725  1.0000
  C   C1388     1.0  0.76570  0.64802  0.96802  1.0000
  O   O4162     1.0  0.78035  0.63293  0.98142  1.0000
  O   O4163     1.0  0.77084  0.65483  0.94151  1.0000
  O   O4164     1.0  0.74580  0.65615  0.98105  1.0000
  C   C1389     1.0  0.20134  0.45706  0.25912  1.0000
  O   O4165     1.0  0.19986  0.44729  0.23336  1.0000
  O   O4166     1.0  0.21176  0.44535  0.28051  1.0000
  O   O4167     1.0  0.19246  0.47858  0.26348  1.0000
  C   C1390     1.0  0.67199  0.52117  0.95844  1.0000
  O   O4168     1.0  0.66190  0.50094  0.96662  1.0000
  O   O4169     1.0  0.67456  0.53868  0.97708  1.0000
  O   O4170     1.0  0.67939  0.52393  0.93158  1.0000
  C   C1391     1.0  0.94941  0.56745  0.03312  1.0000
  O   O4171     1.0  0.95349  0.54447  0.03600  1.0000
  O   O4172     1.0  0.95283  0.57782  0.00796  1.0000
  O   O4173     1.0  0.94178  0.58004  0.05537  1.0000
  C   C1392     1.0  0.34330  0.11144  0.28401  1.0000
  O   O4174     1.0  0.34859  0.09220  0.26903  1.0000
  O   O4175     1.0  0.32701  0.12680  0.27409  1.0000
  O   O4176     1.0  0.35447  0.11545  0.30877  1.0000
  C   C1393     1.0  0.34350  0.65221  0.58031  1.0000
  O   O4177     1.0  0.33171  0.67203  0.57397  1.0000
  O   O4178     1.0  0.33798  0.63234  0.56669  1.0000
  O   O4179     1.0  0.36063  0.65221  0.60047  1.0000
  C   C1394     1.0  0.71030  0.82003  0.48098  1.0000
  O   O4180     1.0  0.69903  0.83689  0.49567  1.0000
  O   O4181     1.0  0.73323  0.82312  0.47230  1.0000
  O   O4182     1.0  0.69871  0.79998  0.47521  1.0000
  C   C1395     1.0  0.01161  0.83611  0.63109  1.0000
  O   O4183     1.0  0.03232  0.83220  0.64521  1.0000
  O   O4184     1.0  0.99627  0.85275  0.63999  1.0000
  O   O4185     1.0  0.00636  0.82354  0.60792  1.0000
  C   C1396     1.0  0.84238  0.54220  0.12004  1.0000
  O   O4186     1.0  0.83759  0.53502  0.09358  1.0000
  O   O4187     1.0  0.83350  0.56263  0.12934  1.0000
  O   O4188     1.0  0.85594  0.52890  0.13725  1.0000
  C   C1397     1.0  0.44911  0.08757  0.32358  1.0000
  O   O4189     1.0  0.47324  0.08509  0.32539  1.0000
  O   O4190     1.0  0.43964  0.10575  0.30947  1.0000
  O   O4191     1.0  0.43443  0.07199  0.33609  1.0000
  C   C1398     1.0  0.14984  0.40914  0.27825  1.0000
  O   O4192     1.0  0.17004  0.39633  0.28130  1.0000
  O   O4193     1.0  0.12851  0.40084  0.28750  1.0000
  O   O4194     1.0  0.15092  0.43014  0.26571  1.0000
  C   C1399     1.0  0.10759  0.27231  0.37318  1.0000
  O   O4195     1.0  0.09676  0.28007  0.39681  1.0000
  O   O4196     1.0  0.09441  0.26824  0.34982  1.0000
  O   O4197     1.0  0.13160  0.26854  0.37294  1.0000
  C   C1400     1.0  0.85918  0.86838  0.38391  1.0000
  O   O4198     1.0  0.84102  0.88393  0.38279  1.0000
  O   O4199     1.0  0.88226  0.87568  0.38250  1.0000
  O   O4200     1.0  0.85427  0.84552  0.38644  1.0000
  C   C1401     1.0  0.25402  0.97761  0.94263  1.0000
  O   O4201     1.0  0.25110  0.98619  0.91642  1.0000
  O   O4202     1.0  0.24406  0.98863  0.96484  1.0000
  O   O4203     1.0  0.26691  0.95802  0.94664  1.0000
  C   C1402     1.0  0.16169  0.94315  0.73538  1.0000
  O   O4204     1.0  0.17445  0.92607  0.74786  1.0000
  O   O4205     1.0  0.17060  0.96494  0.73446  1.0000
  O   O4206     1.0  0.14012  0.93840  0.72359  1.0000
  C   C1403     1.0  0.35812  0.96866  0.14823  1.0000
  O   O4207     1.0  0.37477  0.98445  0.15613  1.0000
  O   O4208     1.0  0.34618  0.95626  0.16789  1.0000
  O   O4209     1.0  0.35340  0.96527  0.12066  1.0000
  C   C1404     1.0  0.65191  0.60634  0.70411  1.0000
  O   O4210     1.0  0.64649  0.60934  0.73157  1.0000
  O   O4211     1.0  0.65078  0.62449  0.68619  1.0000
  O   O4212     1.0  0.65858  0.58521  0.69461  1.0000
  C   C1405     1.0  0.47704  0.24849  0.80031  1.0000
  O   O4213     1.0  0.49714  0.25288  0.78523  1.0000
  O   O4214     1.0  0.47864  0.23726  0.82518  1.0000
  O   O4215     1.0  0.45532  0.25522  0.79045  1.0000
  C   C1406     1.0  0.99521  0.38737  0.18261  1.0000
  O   O4216     1.0  0.01205  0.40117  0.19446  1.0000
  O   O4217     1.0  0.98017  0.39603  0.16291  1.0000
  O   O4218     1.0  0.99358  0.36486  0.19027  1.0000
  C   C1407     1.0  0.88620  0.66603  0.90604  1.0000
  O   O4219     1.0  0.86475  0.66714  0.91935  1.0000
  O   O4220     1.0  0.89007  0.64964  0.88625  1.0000
  O   O4221     1.0  0.90370  0.68146  0.91232  1.0000
  C   C1408     1.0  0.64879  0.47158  0.43985  1.0000
  O   O4222     1.0  0.66953  0.48286  0.43409  1.0000
  O   O4223     1.0  0.63506  0.47832  0.46182  1.0000
  O   O4224     1.0  0.64168  0.45371  0.42346  1.0000
  C   C1409     1.0  0.72952  0.48607  0.26842  1.0000
  O   O4225     1.0  0.75347  0.48812  0.26411  1.0000
  O   O4226     1.0  0.71666  0.50451  0.27743  1.0000
  O   O4227     1.0  0.71841  0.46563  0.26345  1.0000
  C   C1410     1.0  0.49927  0.42654  0.79178  1.0000
  O   O4228     1.0  0.49111  0.42132  0.76578  1.0000
  O   O4229     1.0  0.50252  0.44892  0.79930  1.0000
  O   O4230     1.0  0.50416  0.40938  0.81027  1.0000
  C   C1411     1.0  0.66337  0.17675  0.23496  1.0000
  O   O4231     1.0  0.67470  0.15615  0.23785  1.0000
  O   O4232     1.0  0.66267  0.18731  0.20961  1.0000
  O   O4233     1.0  0.65253  0.18668  0.25736  1.0000
  C   C1412     1.0  0.14587  0.85760  0.22114  1.0000
  O   O4234     1.0  0.16125  0.87551  0.21760  1.0000
  O   O4235     1.0  0.12401  0.86126  0.23278  1.0000
  O   O4236     1.0  0.15245  0.83598  0.21332  1.0000
  C   C1413     1.0  0.23811  0.53091  0.36787  1.0000
  O   O4237     1.0  0.26030  0.52221  0.37279  1.0000
  O   O4238     1.0  0.23564  0.55249  0.35719  1.0000
  O   O4239     1.0  0.21840  0.51811  0.37390  1.0000
  C   C1414     1.0  0.81828  0.78775  0.52577  1.0000
  O   O4240     1.0  0.84132  0.79080  0.53408  1.0000
  O   O4241     1.0  0.80016  0.79773  0.54037  1.0000
  O   O4242     1.0  0.81336  0.77483  0.50277  1.0000
  C   C1415     1.0  0.13978  0.37130  0.50464  1.0000
  O   O4243     1.0  0.15542  0.35566  0.49398  1.0000
  O   O4244     1.0  0.12609  0.38424  0.48718  1.0000
  O   O4245     1.0  0.13797  0.37413  0.53277  1.0000
  C   C1416     1.0  0.30238  0.33160  0.18717  1.0000
  O   O4246     1.0  0.30931  0.33570  0.21394  1.0000
  O   O4247     1.0  0.30778  0.34701  0.16672  1.0000
  O   O4248     1.0  0.29010  0.31206  0.18083  1.0000
  C   C1417     1.0  0.30948  0.08912  0.38495  1.0000
  O   O4249     1.0  0.32927  0.08016  0.39739  1.0000
  O   O4250     1.0  0.30419  0.11185  0.38805  1.0000
  O   O4251     1.0  0.29501  0.07536  0.36935  1.0000
  C   C1418     1.0  0.41961  0.43540  0.79123  1.0000
  O   O4252     1.0  0.40919  0.42958  0.81591  1.0000
  O   O4253     1.0  0.44270  0.44275  0.79072  1.0000
  O   O4254     1.0  0.40688  0.43405  0.76708  1.0000
  C   C1419     1.0  0.52912  0.90337  0.21887  1.0000
  O   O4255     1.0  0.54242  0.89896  0.24205  1.0000
  O   O4256     1.0  0.50965  0.91734  0.22062  1.0000
  O   O4257     1.0  0.53516  0.89364  0.19401  1.0000
  C   C1420     1.0  0.76567  0.30707  0.29806  1.0000
  O   O4258     1.0  0.75664  0.30894  0.27178  1.0000
  O   O4259     1.0  0.77907  0.28841  0.30518  1.0000
  O   O4260     1.0  0.76151  0.32396  0.31714  1.0000
  C   C1421     1.0  0.61296  0.26021  0.57308  1.0000
  O   O4261     1.0  0.59481  0.25183  0.58901  1.0000
  O   O4262     1.0  0.63598  0.25457  0.57918  1.0000
  O   O4263     1.0  0.60809  0.27408  0.55090  1.0000
  C   C1422     1.0  0.91708  0.12112  0.27225  1.0000
  O   O4264     1.0  0.93097  0.10300  0.28007  1.0000
  O   O4265     1.0  0.92734  0.14039  0.26140  1.0000
  O   O4266     1.0  0.89293  0.12001  0.27538  1.0000
  C   C1423     1.0  0.49346  0.70007  0.53974  1.0000
  O   O4267     1.0  0.50700  0.70782  0.56139  1.0000
  O   O4268     1.0  0.49570  0.70985  0.51405  1.0000
  O   O4269     1.0  0.47761  0.68262  0.54380  1.0000
  C   C1424     1.0  0.96337  0.80182  0.71209  1.0000
  O   O4270     1.0  0.97453  0.80665  0.68753  1.0000
  O   O4271     1.0  0.95966  0.81884  0.73114  1.0000
  O   O4272     1.0  0.95575  0.78002  0.71750  1.0000
  C   C1425     1.0  0.62459  0.70349  0.43726  1.0000
  O   O4273     1.0  0.64174  0.69010  0.44919  1.0000
  O   O4274     1.0  0.60294  0.70591  0.44990  1.0000
  O   O4275     1.0  0.62872  0.71367  0.41212  1.0000
  C   C1426     1.0  0.39490  0.92067  0.03991  1.0000
  O   O4276     1.0  0.37744  0.90508  0.04570  1.0000
  O   O4277     1.0  0.40489  0.92134  0.01402  1.0000
  O   O4278     1.0  0.40255  0.93543  0.06008  1.0000
  C   C1427     1.0  0.91906  0.28624  0.36522  1.0000
  O   O4279     1.0  0.93281  0.26691  0.36578  1.0000
  O   O4280     1.0  0.92810  0.30659  0.37453  1.0000
  O   O4281     1.0  0.89623  0.28517  0.35552  1.0000
  C   C1428     1.0  0.65352  0.12857  0.15694  1.0000
  O   O4282     1.0  0.66093  0.13765  0.18166  1.0000
  O   O4283     1.0  0.63023  0.13050  0.14910  1.0000
  O   O4284     1.0  0.66939  0.11752  0.14008  1.0000
  C   C1429     1.0  0.61324  0.74162  0.00889  1.0000
  O   O4285     1.0  0.59025  0.73572  0.01481  1.0000
  O   O4286     1.0  0.62640  0.75352  0.02793  1.0000
  O   O4287     1.0  0.62305  0.73563  0.98393  1.0000
  C   C1430     1.0  0.43214  0.18627  0.35070  1.0000
  O   O4288     1.0  0.45595  0.18172  0.34899  1.0000
  O   O4289     1.0  0.42451  0.20766  0.35812  1.0000
  O   O4290     1.0  0.41596  0.16936  0.34523  1.0000
  C   C1431     1.0  0.17664  0.29205  0.45021  1.0000
  O   O4291     1.0  0.17609  0.27892  0.42668  1.0000
  O   O4292     1.0  0.17172  0.31497  0.44872  1.0000
  O   O4293     1.0  0.18207  0.28226  0.47522  1.0000
  C   C1432     1.0  0.70826  0.54937  0.72622  1.0000
  O   O4294     1.0  0.70811  0.57239  0.73151  1.0000
  O   O4295     1.0  0.72460  0.53555  0.73896  1.0000
  O   O4296     1.0  0.69208  0.54016  0.70818  1.0000
  C   C1433     1.0  0.83126  0.98101  0.28400  1.0000
  O   O4297     1.0  0.83504  0.00019  0.29971  1.0000
  O   O4298     1.0  0.81133  0.96802  0.28816  1.0000
  O   O4299     1.0  0.84740  0.97482  0.26411  1.0000
  C   C1434     1.0  0.42236  0.40139  0.38682  1.0000
  O   O4300     1.0  0.42106  0.37802  0.38554  1.0000
  O   O4301     1.0  0.44113  0.41169  0.39988  1.0000
  O   O4302     1.0  0.40500  0.41448  0.37482  1.0000
  C   C1435     1.0  0.70062  0.12062  0.73768  1.0000
  O   O4303     1.0  0.68583  0.12909  0.71760  1.0000
  O   O4304     1.0  0.69272  0.11854  0.76443  1.0000
  O   O4305     1.0  0.72338  0.11441  0.73104  1.0000
  C   C1436     1.0  0.90573  0.46195  0.27659  1.0000
  O   O4306     1.0  0.91992  0.47897  0.28691  1.0000
  O   O4307     1.0  0.88159  0.46480  0.27588  1.0000
  O   O4308     1.0  0.91565  0.44200  0.26725  1.0000
  C   C1437     1.0  0.44769  0.25960  0.88063  1.0000
  O   O4309     1.0  0.43769  0.25917  0.90652  1.0000
  O   O4310     1.0  0.47056  0.26707  0.87726  1.0000
  O   O4311     1.0  0.43482  0.25252  0.85810  1.0000
  C   C1438     1.0  0.08748  0.59057  0.41897  1.0000
  O   O4312     1.0  0.06441  0.58420  0.41440  1.0000
  O   O4313     1.0  0.09354  0.61326  0.41910  1.0000
  O   O4314     1.0  0.10448  0.57424  0.42358  1.0000
  C   C1439     1.0  0.66055  0.54304  0.49083  1.0000
  O   O4315     1.0  0.64630  0.52729  0.47797  1.0000
  O   O4316     1.0  0.68285  0.54733  0.48076  1.0000
  O   O4317     1.0  0.65242  0.55465  0.51361  1.0000
  C   C1440     1.0  0.28349  0.64123  0.91508  1.0000
  O   O4318     1.0  0.29761  0.65807  0.92595  1.0000
  O   O4319     1.0  0.26974  0.64565  0.89226  1.0000
  O   O4320     1.0  0.28327  0.61991  0.92688  1.0000
  C   C1441     1.0  0.22486  0.21416  0.12575  1.0000
  O   O4321     1.0  0.23213  0.23144  0.10854  1.0000
  O   O4322     1.0  0.21337  0.19550  0.11504  1.0000
  O   O4323     1.0  0.22922  0.21549  0.15366  1.0000
  C   C1442     1.0  0.84282  0.47568  0.44059  1.0000
  O   O4324     1.0  0.84134  0.49372  0.45863  1.0000
  O   O4325     1.0  0.82657  0.45828  0.44197  1.0000
  O   O4326     1.0  0.86045  0.47511  0.42103  1.0000
  C   C1443     1.0  0.15659  0.62987  0.94119  1.0000
  O   O4327     1.0  0.17898  0.62202  0.94686  1.0000
  O   O4328     1.0  0.15344  0.65157  0.93110  1.0000
  O   O4329     1.0  0.13734  0.61598  0.94543  1.0000
  C   C1444     1.0  0.03034  0.65935  0.10097  1.0000
  O   O4330     1.0  0.02965  0.63938  0.08615  1.0000
  O   O4331     1.0  0.03493  0.67962  0.08776  1.0000
  O   O4332     1.0  0.02668  0.65903  0.12906  1.0000
  C   C1445     1.0  0.23271  0.35829  0.00225  1.0000
  O   O4333     1.0  0.24539  0.34525  0.98387  1.0000
  O   O4334     1.0  0.24344  0.37619  0.01563  1.0000
  O   O4335     1.0  0.20924  0.35358  0.00704  1.0000
  C   C1446     1.0  0.20256  0.80225  0.16359  1.0000
  O   O4336     1.0  0.22605  0.80102  0.15641  1.0000
  O   O4337     1.0  0.19427  0.82072  0.17814  1.0000
  O   O4338     1.0  0.18735  0.78501  0.15620  1.0000
  C   C1447     1.0  0.85100  0.09291  0.44194  1.0000
  O   O4339     1.0  0.86645  0.07497  0.44475  1.0000
  O   O4340     1.0  0.85751  0.11433  0.45060  1.0000
  O   O4341     1.0  0.82910  0.08947  0.43031  1.0000
  C   C1448     1.0  0.16646  0.85404  0.77663  1.0000
  O   O4342     1.0  0.14682  0.84659  0.79074  1.0000
  O   O4343     1.0  0.17083  0.84628  0.75031  1.0000
  O   O4344     1.0  0.18177  0.86918  0.78887  1.0000
  C   C1449     1.0  0.88028  0.23820  0.99265  1.0000
  O   O4345     1.0  0.88051  0.21858  0.97712  1.0000
  O   O4346     1.0  0.89739  0.24176  0.01237  1.0000
  O   O4347     1.0  0.86297  0.25429  0.98841  1.0000
  C   C1450     1.0  0.91914  0.41104  0.17485  1.0000
  O   O4348     1.0  0.93542  0.42595  0.18575  1.0000
  O   O4349     1.0  0.92523  0.38865  0.17045  1.0000
  O   O4350     1.0  0.89671  0.41848  0.16860  1.0000
  C   C1451     1.0  0.15392  0.90768  0.81672  1.0000
  O   O4351     1.0  0.17707  0.91469  0.81859  1.0000
  O   O4352     1.0  0.13758  0.92106  0.80330  1.0000
  O   O4353     1.0  0.14711  0.88730  0.82824  1.0000
  C   C1452     1.0  0.04170  0.86500  0.09299  1.0000
  O   O4354     1.0  0.05767  0.85030  0.08110  1.0000
  O   O4355     1.0  0.03394  0.88377  0.07859  1.0000
  O   O4356     1.0  0.03351  0.86096  0.11929  1.0000
  C   C1453     1.0  0.19660  0.70588  0.49901  1.0000
  O   O4357     1.0  0.21215  0.68855  0.49299  1.0000
  O   O4358     1.0  0.19315  0.72325  0.48037  1.0000
  O   O4359     1.0  0.18469  0.70595  0.52377  1.0000
  C   C1454     1.0  0.29668  0.31317  0.72593  1.0000
  O   O4360     1.0  0.30313  0.30491  0.75143  1.0000
  O   O4361     1.0  0.30870  0.33126  0.71457  1.0000
  O   O4362     1.0  0.27822  0.30333  0.71179  1.0000
  C   C1455     1.0  0.48168  0.83699  0.80443  1.0000
  O   O4363     1.0  0.50128  0.82614  0.81490  1.0000
  O   O4364     1.0  0.47466  0.85759  0.81520  1.0000
  O   O4365     1.0  0.46917  0.82731  0.78307  1.0000
  C   C1456     1.0  0.02741  0.55905  0.16507  1.0000
  O   O4366     1.0  0.01679  0.53796  0.16499  1.0000
  O   O4367     1.0  0.01565  0.57759  0.15445  1.0000
  O   O4368     1.0  0.04969  0.56162  0.17602  1.0000
  C   C1457     1.0  0.71750  0.58993  0.94743  1.0000
  O   O4369     1.0  0.70024  0.59297  0.92775  1.0000
  O   O4370     1.0  0.72461  0.56829  0.95452  1.0000
  O   O4371     1.0  0.72748  0.60851  0.96022  1.0000
  C   C1458     1.0  0.17296  0.09802  0.33017  1.0000
  O   O4372     1.0  0.19621  0.09292  0.33580  1.0000
  O   O4373     1.0  0.16718  0.10947  0.30632  1.0000
  O   O4374     1.0  0.15553  0.09185  0.34851  1.0000
  C   C1459     1.0  0.44256  0.18637  0.48058  1.0000
  O   O4375     1.0  0.45315  0.16722  0.46986  1.0000
  O   O4376     1.0  0.41990  0.18519  0.49079  1.0000
  O   O4377     1.0  0.45464  0.20671  0.48110  1.0000
  C   C1460     1.0  0.39599  0.31970  0.67763  1.0000
  O   O4378     1.0  0.38040  0.33559  0.68785  1.0000
  O   O4379     1.0  0.38978  0.30656  0.65525  1.0000
  O   O4380     1.0  0.41772  0.31684  0.68990  1.0000
  C   C1461     1.0  0.37696  0.09778  0.59098  1.0000
  O   O4381     1.0  0.36637  0.07985  0.60445  1.0000
  O   O4382     1.0  0.38996  0.09392  0.56743  1.0000
  O   O4383     1.0  0.37434  0.11959  0.60089  1.0000
  C   C1462     1.0  0.72658  0.41621  0.15663  1.0000
  O   O4384     1.0  0.72317  0.43612  0.14220  1.0000
  O   O4385     1.0  0.71950  0.41466  0.18375  1.0000
  O   O4386     1.0  0.73684  0.39775  0.14386  1.0000
  C   C1463     1.0  0.60688  0.63398  0.79476  1.0000
  O   O4387     1.0  0.62999  0.63295  0.78602  1.0000
  O   O4388     1.0  0.59361  0.61439  0.79645  1.0000
  O   O4389     1.0  0.59709  0.65457  0.80205  1.0000
  C   C1464     1.0  0.72878  0.89450  0.60574  1.0000
  O   O4390     1.0  0.75013  0.89318  0.61925  1.0000
  O   O4391     1.0  0.72194  0.91460  0.59352  1.0000
  O   O4392     1.0  0.71417  0.87579  0.60468  1.0000
  C   C1465     1.0  0.80455  0.17877  0.46382  1.0000
  O   O4393     1.0  0.79840  0.18200  0.43662  1.0000
  O   O4394     1.0  0.80013  0.19557  0.48295  1.0000
  O   O4395     1.0  0.81491  0.15866  0.47195  1.0000
  C   C1466     1.0  0.66504  0.82012  0.40392  1.0000
  O   O4396     1.0  0.66015  0.84025  0.39054  1.0000
  O   O4397     1.0  0.67733  0.80319  0.39051  1.0000
  O   O4398     1.0  0.65786  0.81701  0.43080  1.0000
  C   C1467     1.0  0.80145  0.77782  0.13133  1.0000
  O   O4399     1.0  0.81386  0.76541  0.11208  1.0000
  O   O4400     1.0  0.78785  0.76682  0.15075  1.0000
  O   O4401     1.0  0.80265  0.80122  0.13118  1.0000
  C   C1468     1.0  0.17136  0.18094  0.72291  1.0000
  O   O4402     1.0  0.17079  0.18388  0.69473  1.0000
  O   O4403     1.0  0.15060  0.17861  0.73744  1.0000
  O   O4404     1.0  0.19268  0.18033  0.73655  1.0000
  C   C1469     1.0  0.84501  0.16912  0.63916  1.0000
  O   O4405     1.0  0.86670  0.17225  0.62690  1.0000
  O   O4406     1.0  0.82946  0.15334  0.62861  1.0000
  O   O4407     1.0  0.83895  0.18162  0.66213  1.0000
  C   C1470     1.0  0.40494  0.09104  0.08289  1.0000
  O   O4408     1.0  0.42849  0.09676  0.08435  1.0000
  O   O4409     1.0  0.39414  0.08054  0.10494  1.0000
  O   O4410     1.0  0.39225  0.09563  0.05931  1.0000
  C   C1471     1.0  0.55134  0.28472  0.90265  1.0000
  O   O4411     1.0  0.56463  0.29951  0.88700  1.0000
  O   O4412     1.0  0.55533  0.28296  0.93060  1.0000
  O   O4413     1.0  0.53423  0.27154  0.89032  1.0000
  C   C1472     1.0  0.95423  0.20908  0.93738  1.0000
  O   O4414     1.0  0.96151  0.23051  0.94515  1.0000
  O   O4415     1.0  0.96937  0.19087  0.93992  1.0000
  O   O4416     1.0  0.93183  0.20589  0.92701  1.0000
  C   C1473     1.0  0.06539  0.18490  0.41210  1.0000
  O   O4417     1.0  0.05422  0.19357  0.38916  1.0000
  O   O4418     1.0  0.05236  0.17483  0.43275  1.0000
  O   O4419     1.0  0.08959  0.18629  0.41439  1.0000
  C   C1474     1.0  0.88528  0.33902  0.41705  1.0000
  O   O4420     1.0  0.89983  0.34713  0.39653  1.0000
  O   O4421     1.0  0.86145  0.34369  0.41637  1.0000
  O   O4422     1.0  0.89451  0.32605  0.43812  1.0000
  C   C1475     1.0  0.93642  0.25896  0.14450  1.0000
  O   O4423     1.0  0.93719  0.27399  0.12273  1.0000
  O   O4424     1.0  0.95208  0.26122  0.16608  1.0000
  O   O4425     1.0  0.91986  0.24181  0.14484  1.0000
  C   C1476     1.0  0.36669  0.99690  0.99719  1.0000
  O   O4426     1.0  0.37065  0.00641  0.02274  1.0000
  O   O4427     1.0  0.38545  0.99195  0.98014  1.0000
  O   O4428     1.0  0.34399  0.99213  0.98881  1.0000
  C   C1477     1.0  0.04606  0.12530  0.92988  1.0000
  O   O4429     1.0  0.04504  0.10591  0.94578  1.0000
  O   O4430     1.0  0.02570  0.13713  0.92390  1.0000
  O   O4431     1.0  0.06746  0.13288  0.91996  1.0000
  C   C1478     1.0  0.51966  0.95929  0.72004  1.0000
  O   O4432     1.0  0.53789  0.97283  0.71085  1.0000
  O   O4433     1.0  0.49883  0.96904  0.72870  1.0000
  O   O4434     1.0  0.52226  0.93599  0.72054  1.0000
  C   C1479     1.0  0.07369  0.15009  0.07002  1.0000
  O   O4435     1.0  0.08541  0.14505  0.09415  1.0000
  O   O4436     1.0  0.06790  0.13295  0.05187  1.0000
  O   O4437     1.0  0.06780  0.17228  0.06401  1.0000
  C   C1480     1.0  0.62105  0.69475  0.13213  1.0000
  O   O4438     1.0  0.63282  0.67819  0.14679  1.0000
  O   O4439     1.0  0.61602  0.71535  0.14432  1.0000
  O   O4440     1.0  0.61416  0.69064  0.10534  1.0000
  C   C1481     1.0  0.81390  0.08898  0.50508  1.0000
  O   O4441     1.0  0.83811  0.09106  0.50615  1.0000
  O   O4442     1.0  0.80002  0.10038  0.52387  1.0000
  O   O4443     1.0  0.80359  0.07531  0.48540  1.0000
  C   C1482     1.0  0.61797  0.24871  0.95082  1.0000
  O   O4444     1.0  0.63226  0.23284  0.96341  1.0000
  O   O4445     1.0  0.62785  0.26712  0.93757  1.0000
  O   O4446     1.0  0.59381  0.24615  0.95147  1.0000
  C   C1483     1.0  0.51379  0.16077  0.45792  1.0000
  O   O4447     1.0  0.53699  0.16369  0.46565  1.0000
  O   O4448     1.0  0.50301  0.17655  0.44110  1.0000
  O   O4449     1.0  0.50141  0.14198  0.46682  1.0000
  C   C1484     1.0  0.14377  0.60553  0.17527  1.0000
  O   O4450     1.0  0.16484  0.59555  0.18266  1.0000
  O   O4451     1.0  0.13757  0.62635  0.18612  1.0000
  O   O4452     1.0  0.12878  0.59459  0.15724  1.0000
  C   C1485     1.0  0.62440  0.34319  0.57884  1.0000
  O   O4453     1.0  0.61958  0.35415  0.60331  1.0000
  O   O4454     1.0  0.64151  0.32655  0.57790  1.0000
  O   O4455     1.0  0.61219  0.34895  0.55528  1.0000
  C   C1486     1.0  0.37327  0.36210  0.20151  1.0000
  O   O4456     1.0  0.39290  0.36970  0.18749  1.0000
  O   O4457     1.0  0.35134  0.37090  0.19541  1.0000
  O   O4458     1.0  0.37560  0.34584  0.22178  1.0000
  C   C1487     1.0  0.34558  0.92868  0.98089  1.0000
  O   O4459     1.0  0.34564  0.90527  0.97945  1.0000
  O   O4460     1.0  0.33098  0.93960  0.99935  1.0000
  O   O4461     1.0  0.36028  0.94115  0.96405  1.0000
  C   C1488     1.0  0.87012  0.25457  0.54667  1.0000
  O   O4462     1.0  0.86062  0.25155  0.52078  1.0000
  O   O4463     1.0  0.89241  0.24652  0.55248  1.0000
  O   O4464     1.0  0.85742  0.26584  0.56668  1.0000
  C   C1489     1.0  0.70554  0.03904  0.03948  1.0000
  O   O4465     1.0  0.71275  0.05305  0.01831  1.0000
  O   O4466     1.0  0.68700  0.02423  0.03552  1.0000
  O   O4467     1.0  0.71677  0.03995  0.06465  1.0000
  C   C1490     1.0  0.21027  0.20777  0.82573  1.0000
  O   O4468     1.0  0.20534  0.22033  0.80244  1.0000
  O   O4469     1.0  0.20077  0.21402  0.85076  1.0000
  O   O4470     1.0  0.22470  0.18896  0.82399  1.0000
  C   C1491     1.0  0.30042  0.97061  0.45609  1.0000
  O   O4471     1.0  0.30994  0.99162  0.45022  1.0000
  O   O4472     1.0  0.29917  0.96318  0.48299  1.0000
  O   O4473     1.0  0.29213  0.95704  0.43505  1.0000
  C   C1492     1.0  0.36999  0.70918  0.75084  1.0000
  O   O4474     1.0  0.36104  0.68958  0.73923  1.0000
  O   O4475     1.0  0.36070  0.71731  0.77520  1.0000
  O   O4476     1.0  0.38921  0.71979  0.73907  1.0000
  C   C1493     1.0  0.34034  0.42198  0.44570  1.0000
  O   O4477     1.0  0.31978  0.41602  0.43234  1.0000
  O   O4478     1.0  0.34255  0.41835  0.47364  1.0000
  O   O4479     1.0  0.35877  0.43135  0.43105  1.0000
  C   C1494     1.0  0.58214  0.85957  0.63483  1.0000
  O   O4480     1.0  0.60138  0.84637  0.62808  1.0000
  O   O4481     1.0  0.58535  0.88162  0.64371  1.0000
  O   O4482     1.0  0.55970  0.85066  0.63297  1.0000
  C   C1495     1.0  0.65972  0.97137  0.56017  1.0000
  O   O4483     1.0  0.67409  0.95646  0.57423  1.0000
  O   O4484     1.0  0.66938  0.98672  0.54193  1.0000
  O   O4485     1.0  0.63565  0.97076  0.56413  1.0000
  C   C1496     1.0  0.74080  0.99362  0.49231  1.0000
  O   O4486     1.0  0.75263  0.99437  0.46750  1.0000
  O   O4487     1.0  0.74567  0.00946  0.51245  1.0000
  O   O4488     1.0  0.72396  0.97714  0.49688  1.0000
  C   C1497     1.0  0.50640  0.26822  0.37224  1.0000
  O   O4489     1.0  0.52808  0.27717  0.37919  1.0000
  O   O4490     1.0  0.48652  0.28168  0.37334  1.0000
  O   O4491     1.0  0.50458  0.24575  0.36446  1.0000
  C   C1498     1.0  0.46565  0.96817  0.51542  1.0000
  O   O4492     1.0  0.46647  0.95951  0.48904  1.0000
  O   O4493     1.0  0.47874  0.98713  0.52213  1.0000
  O   O4494     1.0  0.45192  0.95774  0.53517  1.0000
  C   C1499     1.0  0.93142  0.66532  0.43831  1.0000
  O   O4495     1.0  0.92785  0.68070  0.45935  1.0000
  O   O4496     1.0  0.95330  0.65554  0.43470  1.0000
  O   O4497     1.0  0.91306  0.65959  0.42103  1.0000
  C   C1500     1.0  0.27000  0.32128  0.58935  1.0000
  O   O4498     1.0  0.27398  0.31624  0.61670  1.0000
  O   O4499     1.0  0.27880  0.34110  0.57821  1.0000
  O   O4500     1.0  0.25742  0.30639  0.57306  1.0000
  C   C1501     1.0  0.98876  0.20071  0.69190  1.0000
  O   O4501     1.0  0.98501  0.22111  0.70517  1.0000
  O   O4502     1.0  0.97272  0.18325  0.69476  1.0000
  O   O4503     1.0  0.00862  0.19772  0.67592  1.0000
  C   C1502     1.0  0.56369  0.96612  0.18604  1.0000
  O   O4504     1.0  0.54364  0.96249  0.20152  1.0000
  O   O4505     1.0  0.56768  0.98709  0.17425  1.0000
  O   O4506     1.0  0.57972  0.94877  0.18232  1.0000
  C   C1503     1.0  0.87683  0.17835  0.08229  1.0000
  O   O4507     1.0  0.89035  0.19716  0.07616  1.0000
  O   O4508     1.0  0.85256  0.17984  0.08178  1.0000
  O   O4509     1.0  0.88757  0.15800  0.08866  1.0000
  C   C1504     1.0  0.46110  0.56901  0.67035  1.0000
  O   O4510     1.0  0.46888  0.59122  0.67016  1.0000
  O   O4511     1.0  0.47580  0.55182  0.66155  1.0000
  O   O4512     1.0  0.43869  0.56399  0.67956  1.0000
  C   C1505     1.0  0.08806  0.36040  0.31545  1.0000
  O   O4513     1.0  0.09887  0.37184  0.33678  1.0000
  O   O4514     1.0  0.09816  0.36032  0.28960  1.0000
  O   O4515     1.0  0.06706  0.34917  0.31991  1.0000
  C   C1506     1.0  0.77350  0.90155  0.73188  1.0000
  O   O4516     1.0  0.75592  0.88886  0.74408  1.0000
  O   O4517     1.0  0.77133  0.92484  0.73012  1.0000
  O   O4518     1.0  0.79317  0.89092  0.72123  1.0000
  C   C1507     1.0  0.11951  0.27357  0.10190  1.0000
  O   O4519     1.0  0.11300  0.29316  0.08829  1.0000
  O   O4520     1.0  0.11189  0.25273  0.09244  1.0000
  O   O4521     1.0  0.13345  0.27484  0.12513  1.0000
  C   C1508     1.0  0.37559  0.07909  0.94083  1.0000
  O   O4522     1.0  0.39575  0.08332  0.95588  1.0000
  O   O4523     1.0  0.37730  0.07157  0.91400  1.0000
  O   O4524     1.0  0.35373  0.08257  0.95254  1.0000
  C   C1509     1.0  0.84467  0.24665  0.27362  1.0000
  O   O4525     1.0  0.85535  0.23261  0.29264  1.0000
  O   O4526     1.0  0.82641  0.26066  0.28158  1.0000
  O   O4527     1.0  0.85224  0.24666  0.24662  1.0000
  C   C1510     1.0  0.34410  0.41902  0.24632  1.0000
  O   O4528     1.0  0.36423  0.40631  0.24220  1.0000
  O   O4529     1.0  0.34534  0.44242  0.24644  1.0000
  O   O4530     1.0  0.32275  0.40832  0.25044  1.0000
  C   C1511     1.0  0.03478  0.03931  0.00767  1.0000
  O   O4531     1.0  0.05450  0.03365  0.99254  1.0000
  O   O4532     1.0  0.02106  0.05757  0.99991  1.0000
  O   O4533     1.0  0.02890  0.02684  0.03073  1.0000
  C   C1512     1.0  0.65185  0.52235  0.35516  1.0000
  O   O4534     1.0  0.63111  0.51093  0.36049  1.0000
  O   O4535     1.0  0.67259  0.51526  0.36725  1.0000
  O   O4536     1.0  0.65185  0.54084  0.33771  1.0000
  C   C1513     1.0  0.65761  0.29934  0.70848  1.0000
  O   O4537     1.0  0.67954  0.29550  0.69712  1.0000
  O   O4538     1.0  0.64753  0.28324  0.72544  1.0000
  O   O4539     1.0  0.64566  0.31918  0.70268  1.0000
  C   C1514     1.0  0.68208  0.58266  0.14828  1.0000
  O   O4540     1.0  0.70279  0.59460  0.14475  1.0000
  O   O4541     1.0  0.66088  0.59230  0.14072  1.0000
  O   O4542     1.0  0.68260  0.56100  0.15910  1.0000
  C   C1515     1.0  0.04730  0.05601  0.91329  1.0000
  O   O4543     1.0  0.03601  0.03610  0.90615  1.0000
  O   O4544     1.0  0.04151  0.07604  0.90019  1.0000
  O   O4545     1.0  0.06421  0.05592  0.93370  1.0000
  C   C1516     1.0  0.04887  0.11196  0.38387  1.0000
  O   O4546     1.0  0.05132  0.12303  0.35899  1.0000
  O   O4547     1.0  0.06183  0.11891  0.40638  1.0000
  O   O4548     1.0  0.03343  0.09396  0.38623  1.0000
  C   C1517     1.0  0.45778  0.20594  0.74058  1.0000
  O   O4549     1.0  0.46887  0.21050  0.76525  1.0000
  O   O4550     1.0  0.46945  0.19394  0.72034  1.0000
  O   O4551     1.0  0.43515  0.21366  0.73600  1.0000
  C   C1518     1.0  0.64542  0.89019  0.56967  1.0000
  O   O4552     1.0  0.66681  0.88525  0.58179  1.0000
  O   O4553     1.0  0.64438  0.90507  0.54776  1.0000
  O   O4554     1.0  0.62506  0.88023  0.57946  1.0000
  C   C1519     1.0  0.23455  0.66492  0.82355  1.0000
  O   O4555     1.0  0.24508  0.67693  0.84461  1.0000
  O   O4556     1.0  0.22761  0.67599  0.79986  1.0000
  O   O4557     1.0  0.23073  0.64189  0.82630  1.0000
  C   C1520     1.0  0.32556  0.36924  0.64461  1.0000
  O   O4558     1.0  0.34981  0.36962  0.64672  1.0000
  O   O4559     1.0  0.31322  0.38928  0.64161  1.0000
  O   O4560     1.0  0.31367  0.34880  0.64522  1.0000
  C   C1521     1.0  0.20907  0.86377  0.49158  1.0000
  O   O4561     1.0  0.20297  0.88211  0.47541  1.0000
  O   O4562     1.0  0.19968  0.84263  0.48612  1.0000
  O   O4563     1.0  0.22466  0.86654  0.51313  1.0000
  C   C1522     1.0  0.65624  0.11561  0.98971  1.0000
  O   O4564     1.0  0.66007  0.13604  0.00289  1.0000
  O   O4565     1.0  0.63948  0.10073  0.99962  1.0000
  O   O4566     1.0  0.66919  0.11005  0.96663  1.0000
  C   C1523     1.0  0.19028  0.84096  0.96938  1.0000
  O   O4567     1.0  0.20556  0.84093  0.99148  1.0000
  O   O4568     1.0  0.18232  0.86127  0.95868  1.0000
  O   O4569     1.0  0.18308  0.82070  0.95786  1.0000
  C   C1524     1.0  0.45529  0.57305  0.33910  1.0000
  O   O4570     1.0  0.46087  0.58350  0.31452  1.0000
  O   O4571     1.0  0.46509  0.58074  0.36337  1.0000
  O   O4572     1.0  0.43997  0.55484  0.33940  1.0000
  C   C1525     1.0  0.72276  0.15872  0.93573  1.0000
  O   O4573     1.0  0.73921  0.16445  0.91599  1.0000
  O   O4574     1.0  0.70386  0.14510  0.92887  1.0000
  O   O4575     1.0  0.72534  0.16642  0.96239  1.0000
  C   C1526     1.0  0.96107  0.87526  0.35360  1.0000
  O   O4576     1.0  0.96423  0.86944  0.32633  1.0000
  O   O4577     1.0  0.94146  0.86768  0.36768  1.0000
  O   O4578     1.0  0.97746  0.88874  0.36676  1.0000
  C   C1527     1.0  0.48808  0.49803  0.40883  1.0000
  O   O4579     1.0  0.51154  0.49738  0.41627  1.0000
  O   O4580     1.0  0.48113  0.48994  0.38343  1.0000
  O   O4581     1.0  0.47157  0.50677  0.42680  1.0000
  C   C1528     1.0  0.48067  0.34273  0.89441  1.0000
  O   O4582     1.0  0.49137  0.32169  0.89463  1.0000
  O   O4583     1.0  0.49265  0.36136  0.88434  1.0000
  O   O4584     1.0  0.45801  0.34515  0.90429  1.0000
  C   C1529     1.0  0.03206  0.40286  0.67980  1.0000
  O   O4585     1.0  0.03197  0.42087  0.69797  1.0000
  O   O4586     1.0  0.01130  0.39175  0.67364  1.0000
  O   O4587     1.0  0.05290  0.39595  0.66778  1.0000
  C   C1530     1.0  0.13196  0.61407  0.02947  1.0000
  O   O4588     1.0  0.15519  0.62080  0.02731  1.0000
  O   O4589     1.0  0.11411  0.62903  0.02288  1.0000
  O   O4590     1.0  0.12660  0.59232  0.03797  1.0000
  C   C1531     1.0  0.59648  0.69421  0.59460  1.0000
  O   O4591     1.0  0.61351  0.69010  0.57494  1.0000
  O   O4592     1.0  0.57353  0.68740  0.59009  1.0000
  O   O4593     1.0  0.60237  0.70521  0.61872  1.0000
  C   C1532     1.0  0.06277  0.22832  0.28649  1.0000
  O   O4594     1.0  0.03978  0.22665  0.27744  1.0000
  O   O4595     1.0  0.06760  0.22837  0.31433  1.0000
  O   O4596     1.0  0.08093  0.22988  0.26769  1.0000
  C   C1533     1.0  0.98640  0.32481  0.80239  1.0000
  O   O4597     1.0  0.00513  0.31160  0.81089  1.0000
  O   O4598     1.0  0.98237  0.34562  0.81459  1.0000
  O   O4599     1.0  0.97184  0.31731  0.78153  1.0000
  C   C1534     1.0  0.09655  0.27359  0.77345  1.0000
  O   O4600     1.0  0.09310  0.25173  0.78285  1.0000
  O   O4601     1.0  0.11873  0.28318  0.77437  1.0000
  O   O4602     1.0  0.07785  0.28580  0.76290  1.0000
  C   C1535     1.0  0.20593  0.04502  0.22751  1.0000
  O   O4603     1.0  0.22749  0.03981  0.21599  1.0000
  O   O4604     1.0  0.20018  0.06733  0.23303  1.0000
  O   O4605     1.0  0.19009  0.02793  0.23344  1.0000
  C   C1536     1.0  0.55174  0.97771  0.01963  1.0000
  O   O4606     1.0  0.57177  0.96770  0.00904  1.0000
  O   O4607     1.0  0.54198  0.99633  0.00668  1.0000
  O   O4608     1.0  0.54133  0.96897  0.04302  1.0000
  C   C1537     1.0  0.92407  0.50142  0.12042  1.0000
  O   O4609     1.0  0.90739  0.51607  0.13100  1.0000
  O   O4610     1.0  0.94490  0.49782  0.13441  1.0000
  O   O4611     1.0  0.91992  0.49038  0.09583  1.0000
  C   C1538     1.0  0.45636  0.24704  0.06445  1.0000
  O   O4612     1.0  0.46198  0.25530  0.03869  1.0000
  O   O4613     1.0  0.43307  0.24524  0.07233  1.0000
  O   O4614     1.0  0.47403  0.24061  0.08235  1.0000
  C   C1539     1.0  0.68374  0.16016  0.33730  1.0000
  O   O4615     1.0  0.67758  0.14369  0.31841  1.0000
  O   O4616     1.0  0.69203  0.18092  0.32837  1.0000
  O   O4617     1.0  0.68166  0.15585  0.36511  1.0000
  C   C1540     1.0  0.93280  0.04964  0.92289  1.0000
  O   O4618     1.0  0.93093  0.06808  0.90550  1.0000
  O   O4619     1.0  0.94695  0.03151  0.91576  1.0000
  O   O4620     1.0  0.92052  0.04933  0.94741  1.0000
  C   C1541     1.0  0.03674  0.22216  0.92151  1.0000
  O   O4621     1.0  0.04466  0.24152  0.93457  1.0000
  O   O4622     1.0  0.05224  0.20475  0.91572  1.0000
  O   O4623     1.0  0.01328  0.22014  0.91443  1.0000
  C   C1542     1.0  0.99512  0.96582  0.77346  1.0000
  O   O4624     1.0  0.99451  0.98318  0.79253  1.0000
  O   O4625     1.0  0.99488  0.97075  0.74569  1.0000
  O   O4626     1.0  0.99572  0.94352  0.78217  1.0000
  C   C1543     1.0  0.96021  0.66032  0.31495  1.0000
  O   O4627     1.0  0.95455  0.67575  0.33529  1.0000
  O   O4628     1.0  0.98219  0.65031  0.31462  1.0000
  O   O4629     1.0  0.94396  0.65508  0.29479  1.0000
  C   C1544     1.0  0.88515  0.60471  0.56955  1.0000
  O   O4630     1.0  0.90342  0.62018  0.56915  1.0000
  O   O4631     1.0  0.87337  0.60030  0.59383  1.0000
  O   O4632     1.0  0.87867  0.59364  0.54569  1.0000
  C   C1545     1.0  0.99303  0.39767  0.59765  1.0000
  O   O4633     1.0  0.98833  0.39622  0.56983  1.0000
  O   O4634     1.0  0.01426  0.40641  0.60659  1.0000
  O   O4635     1.0  0.97654  0.39030  0.61653  1.0000
  C   C1546     1.0  0.65325  0.66384  0.33468  1.0000
  O   O4636     1.0  0.67485  0.65405  0.32926  1.0000
  O   O4637     1.0  0.65148  0.68706  0.33789  1.0000
  O   O4638     1.0  0.63338  0.65043  0.33669  1.0000
  C   C1547     1.0  0.86108  0.13070  0.53085  1.0000
  O   O4639     1.0  0.87779  0.12627  0.51092  1.0000
  O   O4640     1.0  0.84111  0.14293  0.52425  1.0000
  O   O4641     1.0  0.86431  0.12287  0.55736  1.0000
  C   C1548     1.0  0.56626  0.21881  0.34096  1.0000
  O   O4642     1.0  0.57855  0.23896  0.34306  1.0000
  O   O4643     1.0  0.55038  0.21567  0.31978  1.0000
  O   O4644     1.0  0.56988  0.20178  0.36001  1.0000
  C   C1549     1.0  0.31289  0.73647  0.72720  1.0000
  O   O4645     1.0  0.31388  0.71318  0.72432  1.0000
  O   O4646     1.0  0.30571  0.74981  0.70539  1.0000
  O   O4647     1.0  0.31891  0.74641  0.75194  1.0000
  C   C1550     1.0  0.47147  0.56380  0.95837  1.0000
  O   O4648     1.0  0.47596  0.56635  0.98611  1.0000
  O   O4649     1.0  0.47524  0.58170  0.94057  1.0000
  O   O4650     1.0  0.46343  0.54328  0.94837  1.0000
  C   C1551     1.0  0.24278  0.64694  0.69356  1.0000
  O   O4651     1.0  0.25945  0.63594  0.67774  1.0000
  O   O4652     1.0  0.23948  0.67003  0.69072  1.0000
  O   O4653     1.0  0.22958  0.63488  0.71241  1.0000
  C   C1552     1.0  0.02406  0.01138  0.59907  1.0000
  O   O4654     1.0  0.00090  0.00896  0.60720  1.0000
  O   O4655     1.0  0.03498  0.99429  0.58441  1.0000
  O   O4656     1.0  0.03633  0.03087  0.60567  1.0000
  C   C1553     1.0  0.10309  0.53788  0.10898  1.0000
  O   O4657     1.0  0.08965  0.53167  0.08653  1.0000
  O   O4658     1.0  0.10877  0.56040  0.11317  1.0000
  O   O4659     1.0  0.11106  0.52153  0.12709  1.0000
  C   C1554     1.0  0.28870  0.64517  0.53660  1.0000
  O   O4660     1.0  0.29924  0.66489  0.52742  1.0000
  O   O4661     1.0  0.27237  0.64602  0.55763  1.0000
  O   O4662     1.0  0.29466  0.62459  0.52494  1.0000
  C   C1555     1.0  0.71807  0.88148  0.80870  1.0000
  O   O4663     1.0  0.72673  0.85990  0.80418  1.0000
  O   O4664     1.0  0.71485  0.88921  0.83526  1.0000
  O   O4665     1.0  0.71260  0.89531  0.78668  1.0000
  C   C1556     1.0  0.51438  0.54815  0.62728  1.0000
  O   O4666     1.0  0.51770  0.52508  0.63049  1.0000
  O   O4667     1.0  0.50059  0.55619  0.60601  1.0000
  O   O4668     1.0  0.52469  0.56315  0.64548  1.0000
  C   C1557     1.0  0.78738  0.13329  0.58607  1.0000
  O   O4669     1.0  0.77539  0.13781  0.56197  1.0000
  O   O4670     1.0  0.80239  0.11489  0.58755  1.0000
  O   O4671     1.0  0.78457  0.14731  0.60859  1.0000
  C   C1558     1.0  0.14794  0.84001  0.54535  1.0000
  O   O4672     1.0  0.15913  0.82755  0.52515  1.0000
  O   O4673     1.0  0.13773  0.86061  0.53894  1.0000
  O   O4674     1.0  0.14717  0.83198  0.57203  1.0000
  C   C1559     1.0  0.19317  0.90712  0.12445  1.0000
  O   O4675     1.0  0.20124  0.88718  0.11289  1.0000
  O   O4676     1.0  0.20867  0.92146  0.13776  1.0000
  O   O4677     1.0  0.16961  0.91273  0.12269  1.0000
  C   C1560     1.0  0.23039  0.94628  0.45177  1.0000
  O   O4678     1.0  0.21982  0.96733  0.45352  1.0000
  O   O4679     1.0  0.24590  0.93932  0.47197  1.0000
  O   O4680     1.0  0.22544  0.93217  0.42984  1.0000
  C   C1561     1.0  0.23042  0.63205  0.49760  1.0000
  O   O4681     1.0  0.21005  0.63580  0.48277  1.0000
  O   O4682     1.0  0.22959  0.63096  0.52596  1.0000
  O   O4683     1.0  0.25166  0.62959  0.48408  1.0000
  C   C1562     1.0  0.12392  0.55364  0.53725  1.0000
  O   O4684     1.0  0.13919  0.54424  0.51830  1.0000
  O   O4685     1.0  0.13235  0.56128  0.56225  1.0000
  O   O4686     1.0  0.10037  0.55618  0.53081  1.0000
  C   C1563     1.0  0.31231  0.09850  0.07398  1.0000
  O   O4687     1.0  0.33630  0.10057  0.07796  1.0000
  O   O4688     1.0  0.29953  0.11660  0.06385  1.0000
  O   O4689     1.0  0.30115  0.07825  0.07985  1.0000
  C   C1564     1.0  0.81444  0.99012  0.46231  1.0000
  O   O4690     1.0  0.80435  0.00149  0.44045  1.0000
  O   O4691     1.0  0.83310  0.97554  0.45787  1.0000
  O   O4692     1.0  0.80605  0.99352  0.48865  1.0000
  C   C1565     1.0  0.58588  0.54842  0.63227  1.0000
  O   O4693     1.0  0.59135  0.53919  0.65761  1.0000
  O   O4694     1.0  0.59274  0.57033  0.62602  1.0000
  O   O4695     1.0  0.57361  0.53572  0.61313  1.0000
  C   C1566     1.0  0.81224  0.80344  0.03921  1.0000
  O   O4696     1.0  0.81330  0.78003  0.03933  1.0000
  O   O4697     1.0  0.83202  0.81598  0.03271  1.0000
  O   O4698     1.0  0.79137  0.81431  0.04545  1.0000
  C   C1567     1.0  0.51750  0.70728  0.40155  1.0000
  O   O4699     1.0  0.52840  0.69767  0.42412  1.0000
  O   O4700     1.0  0.50679  0.69361  0.38216  1.0000
  O   O4701     1.0  0.51730  0.73057  0.39838  1.0000
  C   C1568     1.0  0.06448  0.91838  0.42638  1.0000
  O   O4702     1.0  0.07829  0.90123  0.41568  1.0000
  O   O4703     1.0  0.07476  0.93589  0.44096  1.0000
  O   O4704     1.0  0.04039  0.91803  0.42250  1.0000
  C   C1569     1.0  0.73416  0.06441  0.52688  1.0000
  O   O4705     1.0  0.75689  0.06474  0.51680  1.0000
  O   O4706     1.0  0.72944  0.07285  0.55281  1.0000
  O   O4707     1.0  0.71614  0.05562  0.51105  1.0000
  C   C1570     1.0  0.53280  0.50201  0.50157  1.0000
  O   O4708     1.0  0.54202  0.49190  0.52482  1.0000
  O   O4709     1.0  0.52494  0.52417  0.50262  1.0000
  O   O4710     1.0  0.53132  0.48992  0.47729  1.0000
  C   C1571     1.0  0.22258  0.15211  0.04794  1.0000
  O   O4711     1.0  0.22768  0.17410  0.04013  1.0000
  O   O4712     1.0  0.20102  0.14708  0.05958  1.0000
  O   O4713     1.0  0.23913  0.13520  0.04434  1.0000
  C   C1572     1.0  0.74785  0.76083  0.48784  1.0000
  O   O4714     1.0  0.76161  0.77300  0.46964  1.0000
  O   O4715     1.0  0.73472  0.74264  0.47859  1.0000
  O   O4716     1.0  0.74708  0.76696  0.51524  1.0000
  C   C1573     1.0  0.95950  0.80172  0.08851  1.0000
  O   O4717     1.0  0.98358  0.80359  0.09179  1.0000
  O   O4718     1.0  0.94684  0.81947  0.07732  1.0000
  O   O4719     1.0  0.94804  0.78218  0.09669  1.0000
  C   C1574     1.0  0.76378  0.57732  0.44029  1.0000
  O   O4720     1.0  0.76195  0.56126  0.41971  1.0000
  O   O4721     1.0  0.78409  0.59005  0.44283  1.0000
  O   O4722     1.0  0.74541  0.58049  0.45850  1.0000
  C   C1575     1.0  0.00374  0.60786  0.85318  1.0000
  O   O4723     1.0  0.00309  0.59797  0.82743  1.0000
  O   O4724     1.0  0.02117  0.60190  0.87162  1.0000
  O   O4725     1.0  0.98681  0.62354  0.86058  1.0000
  C   C1576     1.0  0.27993  0.98779  0.71324  1.0000
  O   O4726     1.0  0.25983  0.97648  0.72145  1.0000
  O   O4727     1.0  0.28925  0.00475  0.72955  1.0000
  O   O4728     1.0  0.29056  0.98233  0.68855  1.0000
  C   C1577     1.0  0.68106  0.12505  0.88317  1.0000
  O   O4729     1.0  0.70321  0.11694  0.87674  1.0000
  O   O4730     1.0  0.67293  0.14478  0.87116  1.0000
  O   O4731     1.0  0.66697  0.11330  0.90143  1.0000
  C   C1578     1.0  0.46533  0.31408  0.82765  1.0000
  O   O4732     1.0  0.44739  0.30133  0.81630  1.0000
  O   O4733     1.0  0.46011  0.33158  0.84554  1.0000
  O   O4734     1.0  0.48850  0.30915  0.82141  1.0000
  C   C1579     1.0  0.74684  0.50182  0.91120  1.0000
  O   O4735     1.0  0.76695  0.49927  0.92688  1.0000
  O   O4736     1.0  0.73186  0.51985  0.91599  1.0000
  O   O4737     1.0  0.74163  0.48625  0.89087  1.0000
  C   C1580     1.0  0.17295  0.40466  0.73217  1.0000
  O   O4738     1.0  0.18791  0.38637  0.72902  1.0000
  O   O4739     1.0  0.18207  0.42607  0.73667  1.0000
  O   O4740     1.0  0.14888  0.40156  0.73073  1.0000
  C   C1581     1.0  0.64136  0.80440  0.20896  1.0000
  O   O4741     1.0  0.64681  0.79958  0.23603  1.0000
  O   O4742     1.0  0.64139  0.82659  0.19985  1.0000
  O   O4743     1.0  0.63566  0.78704  0.19108  1.0000
  C   C1582     1.0  0.59710  0.70286  0.24091  1.0000
  O   O4744     1.0  0.61104  0.69814  0.21835  1.0000
  O   O4745     1.0  0.60207  0.72140  0.25729  1.0000
  O   O4746     1.0  0.57830  0.68894  0.24723  1.0000
  C   C1583     1.0  0.26042  0.56810  0.72222  1.0000
  O   O4747     1.0  0.25033  0.57424  0.69747  1.0000
  O   O4748     1.0  0.25231  0.57751  0.74646  1.0000
  O   O4749     1.0  0.27875  0.55270  0.72273  1.0000
  C   C1584     1.0  0.32586  0.62159  0.88549  1.0000
  O   O4750     1.0  0.32178  0.59917  0.89227  1.0000
  O   O4751     1.0  0.33744  0.63564  0.90375  1.0000
  O   O4752     1.0  0.31854  0.62989  0.86033  1.0000
  C   C1585     1.0  0.45420  0.56999  0.22538  1.0000
  O   O4753     1.0  0.47772  0.56590  0.22015  1.0000
  O   O4754     1.0  0.44563  0.59191  0.22475  1.0000
  O   O4755     1.0  0.43925  0.55215  0.23125  1.0000
  C   C1586     1.0  0.12198  0.33707  0.16764  1.0000
  O   O4756     1.0  0.12435  0.36039  0.16711  1.0000
  O   O4757     1.0  0.13952  0.32382  0.17899  1.0000
  O   O4758     1.0  0.10205  0.32701  0.15685  1.0000
  C   C1587     1.0  0.13945  0.66639  0.48932  1.0000
  O   O4759     1.0  0.11712  0.65780  0.48505  1.0000
  O   O4760     1.0  0.14257  0.68936  0.49356  1.0000
  O   O4761     1.0  0.15865  0.65200  0.48938  1.0000
  C   C1588     1.0  0.59828  0.59481  0.71103  1.0000
  O   O4762     1.0  0.60935  0.59227  0.68592  1.0000
  O   O4763     1.0  0.59388  0.61626  0.72126  1.0000
  O   O4764     1.0  0.59140  0.57591  0.72578  1.0000
  C   C1589     1.0  0.13600  0.50351  0.44953  1.0000
  O   O4765     1.0  0.13110  0.50650  0.42194  1.0000
  O   O4766     1.0  0.14240  0.52187  0.46553  1.0000
  O   O4767     1.0  0.13452  0.48217  0.46112  1.0000
  C   C1590     1.0  0.81005  0.97727  0.21775  1.0000
  O   O4768     1.0  0.82919  0.97031  0.20238  1.0000
  O   O4769     1.0  0.79020  0.96379  0.21924  1.0000
  O   O4770     1.0  0.81086  0.99759  0.23187  1.0000
  C   C1591     1.0  0.37817  0.59160  0.24509  1.0000
  O   O4771     1.0  0.39513  0.57580  0.25201  1.0000
  O   O4772     1.0  0.35777  0.59321  0.26044  1.0000
  O   O4773     1.0  0.38169  0.60590  0.22296  1.0000
  C   C1592     1.0  0.10102  0.45791  0.33355  1.0000
  O   O4774     1.0  0.08576  0.43970  0.33505  1.0000
  O   O4775     1.0  0.12325  0.45509  0.32255  1.0000
  O   O4776     1.0  0.09396  0.47900  0.34281  1.0000
  C   C1593     1.0  0.56460  0.77088  0.87748  1.0000
  O   O4777     1.0  0.55625  0.79287  0.87834  1.0000
  O   O4778     1.0  0.58520  0.76529  0.89097  1.0000
  O   O4779     1.0  0.55247  0.75451  0.86289  1.0000
  C   C1594     1.0  0.91800  0.60704  0.79956  1.0000
  O   O4780     1.0  0.90523  0.62365  0.81294  1.0000
  O   O4781     1.0  0.90688  0.59247  0.78150  1.0000
  O   O4782     1.0  0.94185  0.60486  0.80443  1.0000
  C   C1595     1.0  0.81104  0.23163  0.99351  1.0000
  O   O4783     1.0  0.82518  0.22207  0.01350  1.0000
  O   O4784     1.0  0.81068  0.25488  0.99001  1.0000
  O   O4785     1.0  0.79740  0.21792  0.97685  1.0000
  C   C1596     1.0  0.98169  0.92374  0.10630  1.0000
  O   O4786     1.0  0.99651  0.94148  0.11300  1.0000
  O   O4787     1.0  0.95765  0.92720  0.10518  1.0000
  O   O4788     1.0  0.99089  0.90251  0.10092  1.0000
  C   C1597     1.0  0.50521  0.63158  0.73890  1.0000
  O   O4789     1.0  0.49798  0.61859  0.71681  1.0000
  O   O4790     1.0  0.49291  0.65095  0.74591  1.0000
  O   O4791     1.0  0.52474  0.62520  0.75396  1.0000
  C   C1598     1.0  0.96289  0.88229  0.79265  1.0000
  O   O4792     1.0  0.98647  0.87891  0.78701  1.0000
  O   O4793     1.0  0.95529  0.90297  0.80264  1.0000
  O   O4794     1.0  0.94694  0.86493  0.78853  1.0000
  C   C1599     1.0  0.82018  0.25876  0.46741  1.0000
  O   O4795     1.0  0.82362  0.27851  0.45264  1.0000
  O   O4796     1.0  0.81025  0.25965  0.49332  1.0000
  O   O4797     1.0  0.82684  0.23815  0.45635  1.0000
  C   C1600     1.0  0.08146  0.67534  0.31739  1.0000
  O   O4798     1.0  0.08799  0.69791  0.31795  1.0000
  O   O4799     1.0  0.06069  0.66897  0.30479  1.0000
  O   O4800     1.0  0.09558  0.65918  0.32968  1.0000
  C   C1601     1.0  0.46810  0.88691  0.67538  1.0000
  O   O4801     1.0  0.45147  0.88681  0.65465  1.0000
  O   O4802     1.0  0.47372  0.86699  0.68884  1.0000
  O   O4803     1.0  0.47921  0.90690  0.68255  1.0000
  C   C1602     1.0  0.90074  0.74635  0.55711  1.0000
  O   O4804     1.0  0.92318  0.74545  0.54619  1.0000
  O   O4805     1.0  0.88665  0.76503  0.55228  1.0000
  O   O4806     1.0  0.89232  0.72849  0.57264  1.0000
  C   C1603     1.0  0.45491  0.62662  0.86963  1.0000
  O   O4807     1.0  0.43469  0.62821  0.85396  1.0000
  O   O4808     1.0  0.46962  0.64516  0.87223  1.0000
  O   O4809     1.0  0.46054  0.60643  0.88246  1.0000
  C   C1604     1.0  0.64325  0.35257  0.83402  1.0000
  O   O4810     1.0  0.63957  0.37497  0.84117  1.0000
  O   O4811     1.0  0.66567  0.34509  0.82776  1.0000
  O   O4812     1.0  0.62448  0.33769  0.83289  1.0000
  C   C1605     1.0  0.97055  0.18973  0.61092  1.0000
  O   O4813     1.0  0.99160  0.19847  0.60143  1.0000
  O   O4814     1.0  0.95010  0.20225  0.60850  1.0000
  O   O4815     1.0  0.96996  0.16847  0.62284  1.0000
  C   C1606     1.0  0.20031  0.26889  0.19892  1.0000
  O   O4816     1.0  0.19763  0.24600  0.19371  1.0000
  O   O4817     1.0  0.21828  0.27632  0.21581  1.0000
  O   O4818     1.0  0.18514  0.28437  0.18704  1.0000
  C   C1607     1.0  0.44911  0.74573  0.83541  1.0000
  O   O4819     1.0  0.46160  0.74475  0.81106  1.0000
  O   O4820     1.0  0.46086  0.74475  0.86026  1.0000
  O   O4821     1.0  0.42490  0.74786  0.83491  1.0000
  C   C1608     1.0  0.15198  0.24109  0.06254  1.0000
  O   O4822     1.0  0.16553  0.23070  0.08248  1.0000
  O   O4823     1.0  0.15494  0.26389  0.05702  1.0000
  O   O4824     1.0  0.13560  0.22862  0.04796  1.0000
  C   C1609     1.0  0.09819  0.64676  0.82962  1.0000
  O   O4825     1.0  0.10236  0.62466  0.83774  1.0000
  O   O4826     1.0  0.09884  0.66407  0.84875  1.0000
  O   O4827     1.0  0.09359  0.65156  0.80234  1.0000
  C   C1610     1.0  0.82387  0.31199  0.77282  1.0000
  O   O4828     1.0  0.81986  0.31524  0.80057  1.0000
  O   O4829     1.0  0.83733  0.32740  0.75829  1.0000
  O   O4830     1.0  0.81462  0.29324  0.75967  1.0000
  C   C1611     1.0  0.39096  0.74989  0.23953  1.0000
  O   O4831     1.0  0.38722  0.76205  0.26342  1.0000
  O   O4832     1.0  0.41272  0.74028  0.23447  1.0000
  O   O4833     1.0  0.37295  0.74733  0.22070  1.0000
  C   C1612     1.0  0.14885  0.17200  0.11431  1.0000
  O   O4834     1.0  0.16515  0.16658  0.13435  1.0000
  O   O4835     1.0  0.12537  0.17435  0.12117  1.0000
  O   O4836     1.0  0.15606  0.17529  0.08747  1.0000
  C   C1613     1.0  0.41958  0.12091  0.48286  1.0000
  O   O4837     1.0  0.44181  0.11165  0.48029  1.0000
  O   O4838     1.0  0.40779  0.11960  0.50766  1.0000
  O   O4839     1.0  0.40905  0.13130  0.46056  1.0000
  C   C1614     1.0  0.03449  0.84593  0.92701  1.0000
  O   O4840     1.0  0.05066  0.85179  0.94700  1.0000
  O   O4841     1.0  0.02318  0.86265  0.91211  1.0000
  O   O4842     1.0  0.02963  0.82336  0.92191  1.0000
  C   C1615     1.0  0.96736  0.82495  0.38942  1.0000
  O   O4843     1.0  0.98739  0.82808  0.40508  1.0000
  O   O4844     1.0  0.94544  0.82578  0.40167  1.0000
  O   O4845     1.0  0.96925  0.82121  0.36146  1.0000
  C   C1616     1.0  0.89041  0.56059  0.98359  1.0000
  O   O4846     1.0  0.87841  0.55639  0.00778  1.0000
  O   O4847     1.0  0.91314  0.55271  0.98028  1.0000
  O   O4848     1.0  0.87960  0.57248  0.96262  1.0000
  C   C1617     1.0  0.94218  0.67378  0.81869  1.0000
  O   O4849     1.0  0.96376  0.67539  0.83164  1.0000
  O   O4850     1.0  0.94016  0.66198  0.79426  1.0000
  O   O4851     1.0  0.92260  0.68395  0.83019  1.0000
  C   C1618     1.0  0.57034  0.62429  0.63372  1.0000
  O   O4852     1.0  0.59153  0.63155  0.64454  1.0000
  O   O4853     1.0  0.56725  0.62343  0.60556  1.0000
  O   O4854     1.0  0.55226  0.61790  0.65105  1.0000
  C   C1619     1.0  0.49874  0.42986  0.67824  1.0000
  O   O4855     1.0  0.48387  0.41925  0.65980  1.0000
  O   O4856     1.0  0.50581  0.41867  0.70179  1.0000
  O   O4857     1.0  0.50672  0.45157  0.67298  1.0000
  C   C1620     1.0  0.27895  0.25299  0.73687  1.0000
  O   O4858     1.0  0.29730  0.24851  0.75469  1.0000
  O   O4859     1.0  0.28126  0.24818  0.70919  1.0000
  O   O4860     1.0  0.25820  0.26211  0.74675  1.0000
