data_image0
_chemical_formula_structural       OH2OH2OH2OH2OH2OH2OH2OH2OH2OH2OH2OH2OH2OH2OH2OH2OH2OH2OH2OH2OH2OH2OH2OH2OH2OH2OH2OH2OH2OH2OH2OH2OH2OH2OH2OH2OH2OH2OH2OH2OH2OH2OH2OH2OH2OH2OH2OH2OH2OH2OH2OH2OH2OH2OH2OH2OH2OH2OH2OH2OH2OH2OH2OH2OH2OH2OH2OH2OH2OH2OH2OH2OH2OH2OH2OH2OH2OH2OH2OH2OH2OH2OH2OH2OH2OH2OH2OH2OH2OH2OH2OH2OH2OH2OH2OH2OH2OH2OH2OH2OH2OH2OH2OH2OH2OH2OH2OH2OH2OH2OH2OH2OH2OH2OH2OH2OH2OH2OH2OH2OH2OH2OH2OH2OH2OH2OH2OH2OH2OH2OH2OH2OH2OH2OH2OH2OH2OH2OH2OH2OH2OH2OH2OH2OH2OH2OH2OH2OH2OH2OH2OH2OH2OH2OH2OH2OH2OH2OH2OH2OH2OH2OH2OH2OH2OH2OH2OH2OH2OH2OH2OH2OH2OH2OH2OH2OH2OH2OH2OH2OH2OH2OH2OH2OH2OH2OH2OH2OH2OH2OH2OH2OH2OH2OH2OH2OH2OH2OH2OH2OH2OH2OH2OH2OH2OH2OH2OH2OH2OH2OH2OH2OH2OH2OH2OH2OH2OH2OH2OH2OH2OH2OH2OH2OH2OH2OH2OH2OH2OH2OH2OH2OH2OH2OH2OH2OH2OH2OH2OH2OH2OH2OH2OH2OH2OH2OH2OH2OH2OH2OH2OH2OH2OH2OH2OH2OH2OH2OH2OH2OH2OH2OH2OH2OH2OH2OH2OH2OH2OH2OH2OH2OH2OH2OH2OH2OH2OH2OH2OH2OH2OH2OH2OH2OH2OH2OH2OH2OH2OH2OH2OH2OH2OH2OH2OH2OH2OH2OH2OH2OH2OH2OH2OH2OH2OH2OH2OH2OH2OH2OH2OH2OH2OH2OH2OH2OH2OH2OH2OH2OH2OH2OH2OH2OH2OH2OH2OH2OH2OH2OH2OH2OH2OH2OH2OH2OH2OH2OH2OH2OH2OH2OH2OH2OH2OH2OH2OH2OH2OH2OH2OH2OH2OH2OH2OH2OH2OH2OH2OH2OH2OH2OH2OH2OH2OH2OH2OH2OH2OH2OH2OH2OH2OH2OH2OH2OH2OH2OH2OH2OH2OH2OH2OH2OH2OH2OH2OH2OH2OH2OH2OH2OH2OH2OH2OH2OH2OH2OH2OH2OH2OH2OH2OH2OH2OH2OH2OH2OH2OH2OH2OH2OH2OH2OH2OH2OH2OH2OH2OH2OH2OH2OH2OH2OH2OH2OH2OH2OH2OH2OH2OH2OH2OH2OH2OH2OH2OH2OH2OH2OH2OH2OH2OH2OH2OH2OH2OH2OH2OH2OH2OH2OH2OH2OH2OH2OH2OH2OH2OH2OH2OH2OH2OH2OH2OH2OH2OH2OH2OH2OH2OH2OH2OH2OH2OH2OH2OH2OH2OH2OH2OH2OH2OH2OH2OH2OH2OH2OH2OH2OH2OH2OH2OH2OH2OH2OH2OH2OH2OH2OH2OH2OH2OH2OH2OH2OH2OH2OH2OH2OH2OH2OH2OH2OH2OH2OH2OH2OH2OH2OH2OH2OH2OH2OH2OH2OH2OH2OH2OH2OH2OH2OH2OH2OH2OH2OH2OH2OH2OH2OH2OH2OH2OH2OH2OH2OH2OH2OH2OH2OH2OH2OH2OH2OH2OH2OH2OH2OH2OH2OH2OH2OH2OH2OH2OH2OH2OH2OH2OH2OH2OH2OH2OH2OH2OH2OH2OH2OH2OH2OH2OH2OH2OH2OH2OH2OH2OH2OH2OH2OH2OH2OH2OH2OH2OH2OH2OH2OH2OH2OH2OH2OH2OH2OH2OH2OH2OH2OH2OH2OH2OH2OH2OH2OH2OH2OH2OH2OH2OH2OH2OH2OH2OH2OH2OH2OH2OH2OH2OH2OH2OH2OH2OH2OH2OH2OH2OH2OH2OH2OH2OH2OH2OH2OH2OH2OH2OH2OH2OH2OH2OH2OH2OH2OH2OH2OH2OH2OH2OH2OH2OH2OH2OH2OH2OH2OH2OH2OH2OH2OH2OH2OH2OH2OH2OH2OH2OH2OH2OH2OH2OH2OH2OH2OH2OH2OH2OH2OH2OH2OH2OH2OH2OH2OH2OH2OH2OH2OH2OH2OH2OH2OH2OH2OH2OH2OH2OH2OH2OH2OH2OH2OH2OH2OH2OH2OH2OH2OH2OH2OH2OH2OH2OH2OH2OH2OH2OH2OH2OH2OH2OH2OH2OH2OH2OH2OH2OH2OH2OH2OH2OH2OH2OH2OH2OH2OH2OH2OH2OH2OH2OH2OH2OH2OH2OH2OH2OH2OH2OH2OH2OH2OH2OH2OH2OH2OH2OH2OH2OH2OH2OH2OH2OH2OH2OH2OH2OH2OH2OH2OH2OH2OH2OH2OH2OH2OH2OH2OH2OH2OH2OH2OH2OH2OH2OH2OH2OH2OH2OH2OH2OH2OH2OH2OH2OH2OH2OH2OH2OH2OH2OH2OH2OH2OH2OH2OH2OH2OH2OH2OH2OH2OH2OH2OH2OH2OH2OH2OH2OH2OH2OH2OH2OH2OH2OH2OH2OH2OH2OH2OH2OH2OH2OH2OH2OH2OH2OH2OH2OH2OH2OH2OH2OH2OH2OH2OH2OH2OH2OH2OH2OH2OH2OH2OH2OH2OH2OH2OH2OH2OH2OH2OH2OH2OH2OH2OH2OH2OH2OH2OH2OH2OH2OH2OH2OH2OH2OH2OH2OH2OH2OH2OH2OH2OH2OH2OH2OH2OH2OH2OH2OH2OH2OH2OH2OH2OH2OH2OH2OH2OH2OH2OH2OH2OH2OH2OH2OH2OH2OH2OH2OH2OH2OH2OH2OH2OH2OH2OH2OH2OH2OH2OH2OH2OH2OH2OH2OH2OH2OH2OH2OH2OH2OH2OH2OH2OH2OH2OH2OH2OH2OH2OH2OH2OH2OH2OH2OH2OH2OH2OH2OH2OH2OH2OH2OH2OH2OH2OH2OH2OH2OH2OH2OH2OH2OH2OH2OH2OH2OH2OH2OH2OH2OH2OH2OH2OH2OH2OH2OH2OH2OH2OH2OH2OH2OH2OH2OH2OH2OH2OH2OH2OH2OH2OH2OH2OH2OH2OH2OH2OH2OH2OH2OH2OH2OH2OH2OH2OH2OH2OH2OH2OH2OH2OH2OH2OH2OH2OH2OH2OH2OH2OH2OH2OH2OH2OH2OH2OH2OH2OH2OH2OH2OH2OH2OH2OH2OH2OH2OH2OH2OH2OH2OH2OH2OH2OH2OH2OH2OH2OH2OH2OH2OH2OH2OH2OH2OH2OH2OH2OH2OH2OH2OH2OH2OH2OH2OH2OH2OH2OH2OH2OH2OH2OH2OH2OH2OH2OH2OH2OH2OH2OH2OH2OH2OH2OH2OH2OH2OH2OH2OH2OH2OH2OH2OH2OH2OH2OH2OH2OH2OH2OH2OH2OH2OH2OH2OH2OH2OH2OH2OH2OH2OH2OH2OH2OH2OH2OH2OH2OH2OH2OH2OH2OH2OH2OH2OH2OH2OH2OH2OH2OH2OH2OH2OH2OH2OH2OH2OH2OH2OH2OH2OH2OH2OH2OH2OH2OH2OH2OH2OH2OH2OH2OH2OH2OH2OH2OH2OH2OH2OH2OH2OH2OH2OH2OH2OH2OH2OH2OH2OH2OH2OH2OH2OH2OH2OH2OH2OH2OH2OH2OH2OH2OH2OH2OH2OH2OH2OH2OH2OH2OH2OH2OH2OH2OH2OH2OH2OH2OH2OH2OH2OH2OH2OH2OH2OH2OH2OH2OH2OH2OH2OH2OH2OH2OH2OH2OH2OH2OH2OH2OH2OH2OH2OH2OH2OH2OH2OH2OH2OH2OH2OH2OH2OH2OH2OH2OH2OH2OH2OH2OH2OH2OH2OH2OH2OH2OH2OH2OH2OH2OH2OH2OH2OH2OH2OH2OH2OH2OH2OH2OH2OH2OH2OH2OH2OH2OH2OH2OH2OH2OH2OH2OH2OH2OH2OH2OH2OH2OH2OH2OH2OH2OH2OH2OH2OH2OH2OH2OH2OH2OH2OH2OH2OH2OH2OH2OH2OH2OH2OH2OH2OH2OH2OH2OH2OH2OH2OH2OH2OH2OH2OH2OH2OH2OH2OH2OH2OH2OH2OH2OH2OH2OH2OH2OH2OH2OH2OH2OH2OH2OH2OH2OH2OH2OH2OH2OH2OH2OH2OH2OH2OH2OH2OH2OH2OH2OH2OH2OH2OH2OH2OH2OH2OH2OH2OH2OH2OH2OH2OH2OH2OH2OH2OH2OH2OH2OH2OH2OH2OH2OH2OH2OH2OH2OH2OH2OH2OH2OH2OH2OH2OH2OH2OH2OH2OH2OH2OH2OH2OH2OH2OH2OH2OH2OH2OH2OH2OH2OH2OH2OH2OH2OH2OH2OH2OH2OH2OH2OH2OH2OH2OH2OH2OH2OH2OH2OH2OH2OH2OH2OH2OH2OH2OH2OH2OH2OH2OH2OH2OH2OH2OH2OH2OH2OH2OH2OH2OH2OH2OH2OH2OH2OH2OH2OH2OH2OH2OH2OH2OH2OH2OH2OH2OH2OH2OH2OH2OH2OH2OH2OH2OH2OH2OH2OH2OH2OH2OH2OH2OH2OH2OH2OH2OH2OH2OH2OH2OH2OH2OH2OH2OH2OH2OH2OH2OH2OH2OH2OH2OH2OH2OH2OH2OH2OH2OH2OH2OH2OH2OH2OH2OH2OH2OH2OH2OH2OH2OH2OH2OH2OH2OH2OH2OH2OH2OH2OH2OH2OH2OH2OH2OH2OH2OH2OH2OH2OH2OH2OH2OH2OH2OH2OH2OH2OH2OH2OH2OH2OH2OH2OH2OH2OH2OH2OH2OH2OH2OH2OH2OH2OH2OH2OH2OH2OH2OH2OH2OH2OH2OH2OH2OH2OH2OH2OH2OH2OH2OH2OH2OH2OH2OH2OH2OH2OH2OH2OH2OH2OH2OH2OH2OH2OH2OH2OH2OH2OH2OH2OH2OH2OH2OH2OH2OH2OH2OH2OH2OH2OH2OH2OH2OH2OH2OH2OH2OH2OH2OH2
_chemical_formula_sum              "O1620 H3240"
_cell_length_a       52.7945
_cell_length_b       54.7943
_cell_length_c       45.1953
_cell_angle_alpha    90
_cell_angle_beta     90
_cell_angle_gamma    90

_space_group_name_H-M_alt    "P 1"
_space_group_IT_number       1

loop_
  _space_group_symop_operation_xyz
  'x, y, z'

loop_
  _atom_site_type_symbol
  _atom_site_label
  _atom_site_symmetry_multiplicity
  _atom_site_fract_x
  _atom_site_fract_y
  _atom_site_fract_z
  _atom_site_occupancy
  O   O1        1.0  0.67461  0.07483  0.04641  1.0000
  H   H1        1.0  0.68217  0.08336  0.06265  1.0000
  H   H2        1.0  0.68865  0.06949  0.03468  1.0000
  O   O2        1.0  0.18286  0.95757  0.31666  1.0000
  H   H3        1.0  0.19884  0.95284  0.32485  1.0000
  H   H4        1.0  0.17393  0.96483  0.33286  1.0000
  O   O3        1.0  0.51373  0.95865  0.98791  1.0000
  H   H5        1.0  0.49880  0.95422  0.97715  1.0000
  H   H6        1.0  0.50961  0.97397  0.99688  1.0000
  O   O4        1.0  0.49101  0.99425  0.94362  1.0000
  H   H7        1.0  0.49841  0.97862  0.94749  1.0000
  H   H8        1.0  0.50180  0.00559  0.95365  1.0000
  O   O5        1.0  0.95026  0.99392  0.63582  1.0000
  H   H9        1.0  0.93531  0.00366  0.63788  1.0000
  H   H10       1.0  0.96374  0.00551  0.63412  1.0000
  O   O6        1.0  0.30526  0.50897  0.49124  1.0000
  H   H11       1.0  0.30800  0.49170  0.49096  1.0000
  H   H12       1.0  0.30234  0.51319  0.47098  1.0000
  O   O7        1.0  0.07510  0.76431  0.10389  1.0000
  H   H13       1.0  0.06205  0.77280  0.11439  1.0000
  H   H14       1.0  0.07124  0.76697  0.08345  1.0000
  O   O8        1.0  0.94283  0.98533  0.00734  1.0000
  H   H15       1.0  0.94901  0.97025  0.99944  1.0000
  H   H16       1.0  0.92480  0.98348  0.00752  1.0000
  O   O9        1.0  0.44745  0.67164  0.91375  1.0000
  H   H17       1.0  0.45981  0.67918  0.90125  1.0000
  H   H18       1.0  0.45706  0.66490  0.92974  1.0000
  O   O10       1.0  0.61106  0.67077  0.29287  1.0000
  H   H19       1.0  0.62246  0.65742  0.29595  1.0000
  H   H20       1.0  0.60215  0.66665  0.27512  1.0000
  O   O11       1.0  0.61328  0.99882  0.09111  1.0000
  H   H21       1.0  0.62275  0.98869  0.10435  1.0000
  H   H22       1.0  0.59599  0.99642  0.09680  1.0000
  O   O12       1.0  0.30836  0.92929  0.95142  1.0000
  H   H23       1.0  0.31154  0.92108  0.96975  1.0000
  H   H24       1.0  0.32287  0.92569  0.93949  1.0000
  O   O13       1.0  0.08968  0.34107  0.72860  1.0000
  H   H25       1.0  0.07616  0.32955  0.72665  1.0000
  H   H26       1.0  0.09464  0.33998  0.74893  1.0000
  O   O14       1.0  0.35088  0.99532  0.53836  1.0000
  H   H27       1.0  0.36021  0.98245  0.54765  1.0000
  H   H28       1.0  0.34911  0.00748  0.55343  1.0000
  O   O15       1.0  0.10451  0.66396  0.11545  1.0000
  H   H29       1.0  0.10630  0.64684  0.11177  1.0000
  H   H30       1.0  0.09040  0.66513  0.12868  1.0000
  O   O16       1.0  0.83842  0.72601  0.24092  1.0000
  H   H31       1.0  0.82500  0.72452  0.22679  1.0000
  H   H32       1.0  0.83267  0.73828  0.25442  1.0000
  O   O17       1.0  0.03950  0.08119  0.32781  1.0000
  H   H33       1.0  0.04107  0.09613  0.33864  1.0000
  H   H34       1.0  0.05450  0.08047  0.31594  1.0000
  O   O18       1.0  0.49888  0.03197  0.71838  1.0000
  H   H35       1.0  0.49672  0.04160  0.73587  1.0000
  H   H36       1.0  0.51446  0.03763  0.71000  1.0000
  O   O19       1.0  0.42272  0.51375  0.93090  1.0000
  H   H37       1.0  0.42454  0.52195  0.94948  1.0000
  H   H38       1.0  0.42330  0.49677  0.93579  1.0000
  O   O20       1.0  0.88863  0.92180  0.60272  1.0000
  H   H39       1.0  0.89077  0.90729  0.61425  1.0000
  H   H40       1.0  0.89425  0.93470  0.61540  1.0000
  O   O21       1.0  0.98522  0.21339  0.36576  1.0000
  H   H41       1.0  0.98934  0.22597  0.35189  1.0000
  H   H42       1.0  0.96769  0.21596  0.37018  1.0000
  O   O22       1.0  0.09604  0.31864  0.36430  1.0000
  H   H43       1.0  0.11378  0.32197  0.36265  1.0000
  H   H44       1.0  0.09358  0.31470  0.38473  1.0000
  O   O23       1.0  0.62706  0.36971  0.06582  1.0000
  H   H45       1.0  0.64099  0.36942  0.05226  1.0000
  H   H46       1.0  0.63181  0.38153  0.08040  1.0000
  O   O24       1.0  0.64731  0.12285  0.82874  1.0000
  H   H47       1.0  0.65864  0.13250  0.84043  1.0000
  H   H48       1.0  0.65300  0.10643  0.83153  1.0000
  O   O25       1.0  0.14571  0.70208  0.67290  1.0000
  H   H49       1.0  0.13717  0.68766  0.66632  1.0000
  H   H50       1.0  0.16103  0.70248  0.66159  1.0000
  O   O26       1.0  0.28029  0.15391  0.14053  1.0000
  H   H51       1.0  0.28580  0.17009  0.13581  1.0000
  H   H52       1.0  0.26411  0.15243  0.13114  1.0000
  O   O27       1.0  0.11215  0.01283  0.84787  1.0000
  H   H53       1.0  0.11708  0.99781  0.85702  1.0000
  H   H54       1.0  0.09443  0.01092  0.84400  1.0000
  O   O28       1.0  0.01728  0.18568  0.47559  1.0000
  H   H55       1.0  0.02675  0.20001  0.48053  1.0000
  H   H56       1.0  0.02539  0.17944  0.45823  1.0000
  O   O29       1.0  0.45921  0.36095  0.69499  1.0000
  H   H57       1.0  0.47460  0.35462  0.68683  1.0000
  H   H58       1.0  0.46299  0.36364  0.71544  1.0000
  O   O30       1.0  0.81268  0.83681  0.56625  1.0000
  H   H59       1.0  0.80962  0.82047  0.55967  1.0000
  H   H60       1.0  0.82788  0.83571  0.57772  1.0000
  O   O31       1.0  0.37325  0.10270  0.99751  1.0000
  H   H61       1.0  0.38889  0.09817  0.98833  1.0000
  H   H62       1.0  0.36243  0.08888  0.99463  1.0000
  O   O32       1.0  0.66814  0.07088  0.92454  1.0000
  H   H63       1.0  0.66575  0.05357  0.92516  1.0000
  H   H64       1.0  0.66776  0.07484  0.90392  1.0000
  O   O33       1.0  0.74105  0.98905  0.68997  1.0000
  H   H65       1.0  0.72306  0.99081  0.69154  1.0000
  H   H66       1.0  0.74770  0.99954  0.70503  1.0000
  O   O34       1.0  0.24524  0.56835  0.62673  1.0000
  H   H67       1.0  0.26149  0.56934  0.61742  1.0000
  H   H68       1.0  0.24695  0.55546  0.64088  1.0000
  O   O35       1.0  0.64612  0.75675  0.55814  1.0000
  H   H69       1.0  0.65652  0.74920  0.54340  1.0000
  H   H70       1.0  0.62931  0.75580  0.55030  1.0000
  O   O36       1.0  0.48651  0.95048  0.57283  1.0000
  H   H71       1.0  0.48894  0.96257  0.58785  1.0000
  H   H72       1.0  0.47978  0.95934  0.55635  1.0000
  O   O37       1.0  0.36698  0.36464  0.33339  1.0000
  H   H73       1.0  0.35125  0.37082  0.32596  1.0000
  H   H74       1.0  0.37033  0.37427  0.35062  1.0000
  O   O38       1.0  0.85884  0.28517  0.65476  1.0000
  H   H75       1.0  0.87180  0.28479  0.66957  1.0000
  H   H76       1.0  0.84799  0.29830  0.66062  1.0000
  O   O39       1.0  0.95941  0.62830  0.56815  1.0000
  H   H77       1.0  0.96110  0.64525  0.57286  1.0000
  H   H78       1.0  0.94179  0.62622  0.56385  1.0000
  O   O40       1.0  0.21659  0.02634  0.97721  1.0000
  H   H79       1.0  0.22529  0.01949  0.96060  1.0000
  H   H80       1.0  0.22709  0.03962  0.98344  1.0000
  O   O41       1.0  0.85851  0.77588  0.47709  1.0000
  H   H81       1.0  0.86005  0.78174  0.45721  1.0000
  H   H82       1.0  0.84103  0.77825  0.48192  1.0000
  O   O42       1.0  0.78255  0.28752  0.52529  1.0000
  H   H83       1.0  0.76808  0.29785  0.52773  1.0000
  H   H84       1.0  0.77565  0.27202  0.51977  1.0000
  O   O43       1.0  0.58853  0.59997  0.46635  1.0000
  H   H85       1.0  0.58416  0.61648  0.47105  1.0000
  H   H86       1.0  0.60113  0.60136  0.45121  1.0000
  O   O44       1.0  0.17267  0.04314  0.94058  1.0000
  H   H87       1.0  0.15668  0.04053  0.93110  1.0000
  H   H88       1.0  0.18487  0.04136  0.92507  1.0000
  O   O45       1.0  0.56805  0.84596  0.13502  1.0000
  H   H89       1.0  0.55114  0.84155  0.12959  1.0000
  H   H90       1.0  0.57851  0.83827  0.12046  1.0000
  O   O46       1.0  0.56520  0.71971  0.51981  1.0000
  H   H91       1.0  0.57576  0.71435  0.53575  1.0000
  H   H92       1.0  0.55899  0.70496  0.51108  1.0000
  O   O47       1.0  0.77362  0.60892  0.56425  1.0000
  H   H93       1.0  0.77495  0.59978  0.54627  1.0000
  H   H94       1.0  0.77168  0.59682  0.57935  1.0000
  O   O48       1.0  0.51327  0.35788  0.60757  1.0000
  H   H95       1.0  0.50989  0.34072  0.60766  1.0000
  H   H96       1.0  0.52693  0.35989  0.62128  1.0000
  O   O49       1.0  0.25518  0.45090  0.02282  1.0000
  H   H97       1.0  0.26516  0.45605  0.00628  1.0000
  H   H98       1.0  0.25960  0.46199  0.03834  1.0000
  O   O50       1.0  0.56760  0.10384  0.83242  1.0000
  H   H99       1.0  0.57431  0.08805  0.83695  1.0000
  H   H100      1.0  0.57003  0.10557  0.81154  1.0000
  O   O51       1.0  0.40249  0.80705  0.25420  1.0000
  H   H101      1.0  0.41492  0.80650  0.23879  1.0000
  H   H102      1.0  0.40213  0.82379  0.26023  1.0000
  O   O52       1.0  0.75187  0.56258  0.89543  1.0000
  H   H103      1.0  0.75528  0.55294  0.87823  1.0000
  H   H104      1.0  0.75357  0.57909  0.88882  1.0000
  O   O53       1.0  0.76365  0.63564  0.03395  1.0000
  H   H105      1.0  0.77436  0.64278  0.01920  1.0000
  H   H106      1.0  0.77503  0.62706  0.04674  1.0000
  O   O54       1.0  0.41823  0.88231  0.13016  1.0000
  H   H107      1.0  0.42528  0.88435  0.14952  1.0000
  H   H108      1.0  0.41535  0.86512  0.12843  1.0000
  O   O55       1.0  0.32938  0.29583  0.90114  1.0000
  H   H109      1.0  0.31129  0.29593  0.90260  1.0000
  H   H110      1.0  0.33328  0.28070  0.89160  1.0000
  O   O56       1.0  0.84723  0.73758  0.52338  1.0000
  H   H111      1.0  0.83290  0.73999  0.51074  1.0000
  H   H112      1.0  0.84556  0.74986  0.53831  1.0000
  O   O57       1.0  0.80362  0.25309  0.72552  1.0000
  H   H113      1.0  0.81654  0.24520  0.73689  1.0000
  H   H114      1.0  0.78861  0.25145  0.73722  1.0000
  O   O58       1.0  0.80671  0.93809  0.84020  1.0000
  H   H115      1.0  0.79064  0.94430  0.83391  1.0000
  H   H116      1.0  0.80691  0.92156  0.83337  1.0000
  O   O59       1.0  0.39585  0.10773  0.15942  1.0000
  H   H117      1.0  0.40978  0.10014  0.14948  1.0000
  H   H118      1.0  0.39704  0.10205  0.17940  1.0000
  O   O60       1.0  0.03566  0.44578  0.64725  1.0000
  H   H119      1.0  0.02001  0.45419  0.65048  1.0000
  H   H120      1.0  0.03085  0.43082  0.63787  1.0000
  O   O61       1.0  0.31525  0.51930  0.66040  1.0000
  H   H121      1.0  0.30805  0.50333  0.65858  1.0000
  H   H122      1.0  0.32859  0.51740  0.67456  1.0000
  O   O62       1.0  0.86764  0.46427  0.84443  1.0000
  H   H123      1.0  0.85733  0.47654  0.85350  1.0000
  H   H124      1.0  0.86322  0.46491  0.82390  1.0000
  O   O63       1.0  0.21744  0.82219  0.90800  1.0000
  H   H125      1.0  0.22692  0.83293  0.92050  1.0000
  H   H126      1.0  0.22361  0.80624  0.91274  1.0000
  O   O64       1.0  0.98480  0.54995  0.12610  1.0000
  H   H127      1.0  0.99153  0.54565  0.10713  1.0000
  H   H128      1.0  0.99890  0.55669  0.13660  1.0000
  O   O65       1.0  0.88155  0.29718  0.88050  1.0000
  H   H129      1.0  0.86587  0.29251  0.87151  1.0000
  H   H130      1.0  0.88737  0.28272  0.89023  1.0000
  O   O66       1.0  0.96117  0.67052  0.74402  1.0000
  H   H131      1.0  0.97145  0.68088  0.75613  1.0000
  H   H132      1.0  0.95066  0.66190  0.75775  1.0000
  O   O67       1.0  0.78158  0.60695  0.49709  1.0000
  H   H133      1.0  0.79306  0.59534  0.50550  1.0000
  H   H134      1.0  0.77282  0.59807  0.48200  1.0000
  O   O68       1.0  0.59530  0.21947  0.54237  1.0000
  H   H135      1.0  0.60447  0.20599  0.53419  1.0000
  H   H136      1.0  0.58600  0.21260  0.55853  1.0000
  O   O69       1.0  0.82388  0.96295  0.88816  1.0000
  H   H137      1.0  0.83861  0.96590  0.89997  1.0000
  H   H138      1.0  0.82932  0.96590  0.86828  1.0000
  O   O70       1.0  0.80558  0.25485  0.05742  1.0000
  H   H139      1.0  0.79615  0.24056  0.05224  1.0000
  H   H140      1.0  0.80525  0.25519  0.07860  1.0000
  O   O71       1.0  0.50718  0.74445  0.84510  1.0000
  H   H141      1.0  0.49894  0.75913  0.85135  1.0000
  H   H142      1.0  0.52360  0.74521  0.85404  1.0000
  O   O72       1.0  0.22633  0.46716  0.85143  1.0000
  H   H143      1.0  0.23460  0.45856  0.83573  1.0000
  H   H144      1.0  0.23984  0.47447  0.86243  1.0000
  O   O73       1.0  0.99163  0.63579  0.51645  1.0000
  H   H145      1.0  0.00174  0.63067  0.50000  1.0000
  H   H146      1.0  0.00234  0.64670  0.52728  1.0000
  O   O74       1.0  0.42297  0.96413  0.01474  1.0000
  H   H147      1.0  0.42861  0.98060  0.01732  1.0000
  H   H148      1.0  0.41261  0.96097  0.03169  1.0000
  O   O75       1.0  0.10170  0.93353  0.29948  1.0000
  H   H149      1.0  0.11116  0.92516  0.28452  1.0000
  H   H150      1.0  0.11431  0.94049  0.31214  1.0000
  O   O76       1.0  0.62394  0.74982  0.76472  1.0000
  H   H151      1.0  0.60682  0.75073  0.77162  1.0000
  H   H152      1.0  0.63234  0.76315  0.77425  1.0000
  O   O77       1.0  0.84291  0.32642  0.84991  1.0000
  H   H153      1.0  0.86050  0.32227  0.85092  1.0000
  H   H154      1.0  0.83534  0.31328  0.83912  1.0000
  O   O78       1.0  0.30319  0.37433  0.44210  1.0000
  H   H155      1.0  0.31348  0.38719  0.44990  1.0000
  H   H156      1.0  0.28931  0.38254  0.43280  1.0000
  O   O79       1.0  0.04223  0.52167  0.85101  1.0000
  H   H157      1.0  0.05147  0.53316  0.83926  1.0000
  H   H158      1.0  0.05452  0.51523  0.86449  1.0000
  O   O80       1.0  0.88927  0.38360  0.54249  1.0000
  H   H159      1.0  0.90132  0.37184  0.53563  1.0000
  H   H160      1.0  0.89900  0.39812  0.54560  1.0000
  O   O81       1.0  0.77567  0.77242  0.57898  1.0000
  H   H161      1.0  0.76416  0.78592  0.57894  1.0000
  H   H162      1.0  0.79197  0.77965  0.57589  1.0000
  O   O82       1.0  0.04334  0.71736  0.13402  1.0000
  H   H163      1.0  0.05218  0.73247  0.13147  1.0000
  H   H164      1.0  0.02881  0.71874  0.12146  1.0000
  O   O83       1.0  0.16190  0.10907  0.74284  1.0000
  H   H165      1.0  0.16617  0.12602  0.74183  1.0000
  H   H166      1.0  0.14388  0.10867  0.74058  1.0000
  O   O84       1.0  0.15156  0.77554  0.01269  1.0000
  H   H167      1.0  0.13604  0.78181  0.00482  1.0000
  H   H168      1.0  0.15404  0.78442  0.03070  1.0000
  O   O85       1.0  0.83896  0.89668  0.01167  1.0000
  H   H169      1.0  0.84674  0.90024  0.99303  1.0000
  H   H170      1.0  0.82993  0.91126  0.01665  1.0000
  O   O86       1.0  0.25439  0.59904  0.57105  1.0000
  H   H171      1.0  0.26984  0.59358  0.57993  1.0000
  H   H172      1.0  0.25966  0.60790  0.55387  1.0000
  O   O87       1.0  0.40323  0.68733  0.40315  1.0000
  H   H173      1.0  0.39999  0.68192  0.38337  1.0000
  H   H174      1.0  0.40193  0.70473  0.40213  1.0000
  O   O88       1.0  0.63753  0.95033  0.06420  1.0000
  H   H175      1.0  0.63330  0.93335  0.06366  1.0000
  H   H176      1.0  0.65247  0.95164  0.05231  1.0000
  O   O89       1.0  0.96010  0.39254  0.92715  1.0000
  H   H177      1.0  0.97376  0.38340  0.91870  1.0000
  H   H178      1.0  0.95875  0.40673  0.91490  1.0000
  O   O90       1.0  0.54745  0.74442  0.12568  1.0000
  H   H179      1.0  0.53012  0.73960  0.12786  1.0000
  H   H180      1.0  0.55177  0.75163  0.14430  1.0000
  O   O91       1.0  0.84843  0.99473  0.64666  1.0000
  H   H181      1.0  0.85611  0.00227  0.66353  1.0000
  H   H182      1.0  0.84899  0.97762  0.65089  1.0000
  O   O92       1.0  0.54103  0.23868  0.40888  1.0000
  H   H183      1.0  0.53486  0.23982  0.42875  1.0000
  H   H184      1.0  0.53049  0.24960  0.39785  1.0000
  O   O93       1.0  0.92850  0.29299  0.75288  1.0000
  H   H185      1.0  0.92748  0.30450  0.76877  1.0000
  H   H186      1.0  0.91391  0.28282  0.75535  1.0000
  O   O94       1.0  0.43372  0.05178  0.11132  1.0000
  H   H187      1.0  0.44170  0.03824  0.10172  1.0000
  H   H188      1.0  0.44705  0.06342  0.11403  1.0000
  O   O95       1.0  0.22816  0.36347  0.32444  1.0000
  H   H189      1.0  0.23350  0.37375  0.30849  1.0000
  H   H190      1.0  0.21517  0.35344  0.31606  1.0000
  O   O96       1.0  0.82126  0.55918  0.69427  1.0000
  H   H191      1.0  0.83489  0.56521  0.70618  1.0000
  H   H192      1.0  0.80650  0.56131  0.70628  1.0000
  O   O97       1.0  0.98029  0.40839  0.30059  1.0000
  H   H193      1.0  0.99094  0.40307  0.28470  1.0000
  H   H194      1.0  0.99136  0.40936  0.31732  1.0000
  O   O98       1.0  0.24655  0.93966  0.23513  1.0000
  H   H195      1.0  0.25168  0.92305  0.23243  1.0000
  H   H196      1.0  0.23385  0.93895  0.25023  1.0000
  O   O99       1.0  0.53382  0.08531  0.20565  1.0000
  H   H197      1.0  0.52988  0.07064  0.21620  1.0000
  H   H198      1.0  0.54498  0.09405  0.21855  1.0000
  O   O100      1.0  0.31741  0.04780  0.71277  1.0000
  H   H199      1.0  0.31582  0.03204  0.72169  1.0000
  H   H200      1.0  0.31133  0.05890  0.72750  1.0000
  O   O101      1.0  0.02578  0.45383  0.58731  1.0000
  H   H201      1.0  0.01518  0.46375  0.57504  1.0000
  H   H202      1.0  0.01466  0.44770  0.60230  1.0000
  O   O102      1.0  0.77694  0.88586  0.50398  1.0000
  H   H203      1.0  0.78350  0.89763  0.49032  1.0000
  H   H204      1.0  0.76846  0.89538  0.51871  1.0000
  O   O103      1.0  0.11713  0.32932  0.51927  1.0000
  H   H205      1.0  0.12385  0.32000  0.53538  1.0000
  H   H206      1.0  0.11458  0.34529  0.52732  1.0000
  O   O104      1.0  0.03303  0.67440  0.63345  1.0000
  H   H207      1.0  0.04030  0.66612  0.61684  1.0000
  H   H208      1.0  0.04644  0.67514  0.64768  1.0000
  O   O105      1.0  0.01776  0.89475  0.82375  1.0000
  H   H209      1.0  0.02021  0.91123  0.83014  1.0000
  H   H210      1.0  0.00086  0.89445  0.81608  1.0000
  O   O106      1.0  0.85155  0.82678  0.75725  1.0000
  H   H211      1.0  0.85932  0.81102  0.75823  1.0000
  H   H212      1.0  0.83484  0.82367  0.74994  1.0000
  O   O107      1.0  0.28918  0.85741  0.09821  1.0000
  H   H213      1.0  0.27767  0.86964  0.10515  1.0000
  H   H214      1.0  0.30249  0.86640  0.08884  1.0000
  O   O108      1.0  0.65702  0.60005  0.49735  1.0000
  H   H215      1.0  0.65395  0.61570  0.50605  1.0000
  H   H216      1.0  0.65952  0.60340  0.47677  1.0000
  O   O109      1.0  0.93018  0.60295  0.66958  1.0000
  H   H217      1.0  0.92369  0.61346  0.68470  1.0000
  H   H218      1.0  0.94769  0.60091  0.67449  1.0000
  O   O110      1.0  0.36565  0.17784  0.09335  1.0000
  H   H219      1.0  0.37471  0.17378  0.11103  1.0000
  H   H220      1.0  0.35064  0.16805  0.09418  1.0000
  O   O111      1.0  0.34052  0.06475  0.11512  1.0000
  H   H221      1.0  0.34167  0.06492  0.09399  1.0000
  H   H222      1.0  0.35478  0.05529  0.12140  1.0000
  O   O112      1.0  0.48977  0.17716  0.66808  1.0000
  H   H223      1.0  0.48460  0.16405  0.68070  1.0000
  H   H224      1.0  0.50547  0.17177  0.65974  1.0000
  O   O113      1.0  0.05719  0.90363  0.94973  1.0000
  H   H225      1.0  0.05840  0.91986  0.95744  1.0000
  H   H226      1.0  0.04975  0.89436  0.96544  1.0000
  O   O114      1.0  0.40707  0.79244  0.84585  1.0000
  H   H227      1.0  0.42162  0.79472  0.83352  1.0000
  H   H228      1.0  0.39372  0.78841  0.83238  1.0000
  O   O115      1.0  0.28358  0.10020  0.68090  1.0000
  H   H229      1.0  0.27490  0.09250  0.69698  1.0000
  H   H230      1.0  0.27553  0.09387  0.66354  1.0000
  O   O116      1.0  0.81784  0.81726  0.80449  1.0000
  H   H231      1.0  0.80477  0.81754  0.78981  1.0000
  H   H232      1.0  0.81627  0.80156  0.81360  1.0000
  O   O117      1.0  0.38630  0.96548  0.92645  1.0000
  H   H233      1.0  0.36971  0.95913  0.92272  1.0000
  H   H234      1.0  0.38421  0.98283  0.92590  1.0000
  O   O118      1.0  0.75765  0.05961  0.03166  1.0000
  H   H235      1.0  0.75291  0.07315  0.04384  1.0000
  H   H236      1.0  0.74716  0.04647  0.03834  1.0000
  O   O119      1.0  0.65768  0.00325  0.95483  1.0000
  H   H237      1.0  0.65508  0.01359  0.93803  1.0000
  H   H238      1.0  0.64108  0.00081  0.96282  1.0000
  O   O120      1.0  0.27117  0.64395  0.61406  1.0000
  H   H239      1.0  0.28517  0.63480  0.62169  1.0000
  H   H240      1.0  0.27677  0.64948  0.59507  1.0000
  O   O121      1.0  0.12382  0.98652  0.75484  1.0000
  H   H241      1.0  0.13865  0.98607  0.74267  1.0000
  H   H242      1.0  0.11253  0.99734  0.74472  1.0000
  O   O122      1.0  0.03913  0.33205  0.10705  1.0000
  H   H243      1.0  0.03310  0.31624  0.10144  1.0000
  H   H244      1.0  0.02804  0.34321  0.09716  1.0000
  O   O123      1.0  0.26153  0.19191  0.61167  1.0000
  H   H245      1.0  0.27320  0.17855  0.61220  1.0000
  H   H246      1.0  0.24517  0.18436  0.61151  1.0000
  O   O124      1.0  0.83722  0.52402  0.51759  1.0000
  H   H247      1.0  0.83506  0.50684  0.52046  1.0000
  H   H248      1.0  0.83294  0.53110  0.53630  1.0000
  O   O125      1.0  0.62854  0.84897  0.08613  1.0000
  H   H249      1.0  0.64537  0.84366  0.09065  1.0000
  H   H250      1.0  0.62148  0.85346  0.10486  1.0000
  O   O126      1.0  0.16190  0.26335  0.52924  1.0000
  H   H251      1.0  0.14793  0.26526  0.51594  1.0000
  H   H252      1.0  0.15435  0.25807  0.54740  1.0000
  O   O127      1.0  0.76771  0.18197  0.00515  1.0000
  H   H253      1.0  0.78489  0.17695  0.00221  1.0000
  H   H254      1.0  0.76595  0.19637  0.99333  1.0000
  O   O128      1.0  0.37957  0.02530  0.18236  1.0000
  H   H255      1.0  0.36914  0.03956  0.18345  1.0000
  H   H256      1.0  0.36961  0.01373  0.17158  1.0000
  O   O129      1.0  0.91653  0.21772  0.28940  1.0000
  H   H257      1.0  0.90823  0.23323  0.28852  1.0000
  H   H258      1.0  0.91137  0.21094  0.30796  1.0000
  O   O130      1.0  0.61402  0.86528  0.17284  1.0000
  H   H259      1.0  0.62375  0.85208  0.18079  1.0000
  H   H260      1.0  0.62555  0.87375  0.16011  1.0000
  O   O131      1.0  0.20935  0.90512  0.86726  1.0000
  H   H261      1.0  0.20964  0.90495  0.88843  1.0000
  H   H262      1.0  0.22574  0.89931  0.86157  1.0000
  O   O132      1.0  0.08547  0.81771  0.65678  1.0000
  H   H263      1.0  0.07632  0.80533  0.64634  1.0000
  H   H264      1.0  0.09990  0.82097  0.64459  1.0000
  O   O133      1.0  0.14272  0.35785  0.75873  1.0000
  H   H265      1.0  0.13742  0.36726  0.77547  1.0000
  H   H266      1.0  0.14968  0.36959  0.74532  1.0000
  O   O134      1.0  0.32256  0.70489  0.27597  1.0000
  H   H267      1.0  0.33340  0.71881  0.27778  1.0000
  H   H268      1.0  0.33033  0.69270  0.28813  1.0000
  O   O135      1.0  0.22428  0.91753  0.18864  1.0000
  H   H269      1.0  0.23282  0.90388  0.19732  1.0000
  H   H270      1.0  0.21498  0.91072  0.17244  1.0000
  O   O136      1.0  0.97244  0.44812  0.16747  1.0000
  H   H271      1.0  0.97270  0.43457  0.15410  1.0000
  H   H272      1.0  0.98592  0.45845  0.16085  1.0000
  O   O137      1.0  0.49052  0.92944  0.27912  1.0000
  H   H273      1.0  0.49432  0.92953  0.25841  1.0000
  H   H274      1.0  0.48975  0.91250  0.28424  1.0000
  O   O138      1.0  0.99140  0.74539  0.20118  1.0000
  H   H275      1.0  0.99740  0.73589  0.18486  1.0000
  H   H276      1.0  0.00251  0.74128  0.21716  1.0000
  O   O139      1.0  0.17887  0.48081  0.89086  1.0000
  H   H277      1.0  0.16548  0.49252  0.89233  1.0000
  H   H278      1.0  0.17127  0.46570  0.89670  1.0000
  O   O140      1.0  0.76983  0.38225  0.51658  1.0000
  H   H279      1.0  0.77225  0.39900  0.52191  1.0000
  H   H280      1.0  0.77401  0.38159  0.49598  1.0000
  O   O141      1.0  0.43034  0.52416  0.19293  1.0000
  H   H281      1.0  0.44001  0.51373  0.20562  1.0000
  H   H282      1.0  0.44250  0.53528  0.18486  1.0000
  O   O142      1.0  0.84539  0.40458  0.40077  1.0000
  H   H283      1.0  0.85098  0.40167  0.42060  1.0000
  H   H284      1.0  0.83131  0.39378  0.39819  1.0000
  O   O143      1.0  0.84020  0.03666  0.05519  1.0000
  H   H285      1.0  0.85232  0.03828  0.03957  1.0000
  H   H286      1.0  0.84848  0.04340  0.07218  1.0000
  O   O144      1.0  0.73387  0.24725  0.60995  1.0000
  H   H287      1.0  0.71976  0.24310  0.62227  1.0000
  H   H288      1.0  0.74352  0.25856  0.62150  1.0000
  O   O145      1.0  0.98414  0.98190  0.84725  1.0000
  H   H289      1.0  0.98720  0.98937  0.82844  1.0000
  H   H290      1.0  0.97027  0.99093  0.85541  1.0000
  O   O146      1.0  0.80468  0.08395  0.67722  1.0000
  H   H291      1.0  0.81905  0.07519  0.68454  1.0000
  H   H292      1.0  0.79084  0.07281  0.67932  1.0000
  O   O147      1.0  0.40581  0.81007  0.37390  1.0000
  H   H293      1.0  0.39389  0.80890  0.35800  1.0000
  H   H294      1.0  0.39757  0.82009  0.38833  1.0000
  O   O148      1.0  0.19038  0.03999  0.70826  1.0000
  H   H295      1.0  0.20805  0.04311  0.70537  1.0000
  H   H296      1.0  0.18396  0.03699  0.68879  1.0000
  O   O149      1.0  0.38764  0.76246  0.39793  1.0000
  H   H297      1.0  0.37786  0.74817  0.40216  1.0000
  H   H298      1.0  0.37726  0.77572  0.40449  1.0000
  O   O150      1.0  0.76204  0.55054  0.35571  1.0000
  H   H299      1.0  0.74603  0.55830  0.35895  1.0000
  H   H300      1.0  0.76174  0.54591  0.33530  1.0000
  O   O151      1.0  0.48116  0.91415  0.15431  1.0000
  H   H301      1.0  0.46426  0.90839  0.15111  1.0000
  H   H302      1.0  0.48638  0.92033  0.13546  1.0000
  O   O152      1.0  0.29496  0.93952  0.12581  1.0000
  H   H303      1.0  0.29661  0.92812  0.10989  1.0000
  H   H304      1.0  0.29797  0.93006  0.14326  1.0000
  O   O153      1.0  0.77254  0.95603  0.48777  1.0000
  H   H305      1.0  0.77442  0.97182  0.47899  1.0000
  H   H306      1.0  0.78349  0.94569  0.47646  1.0000
  O   O154      1.0  0.10576  0.01929  0.01710  1.0000
  H   H307      1.0  0.11388  0.03289  0.02642  1.0000
  H   H308      1.0  0.11349  0.01828  0.99799  1.0000
  O   O155      1.0  0.76232  0.73514  0.03327  1.0000
  H   H309      1.0  0.75556  0.73905  0.05234  1.0000
  H   H310      1.0  0.77940  0.73022  0.03713  1.0000
  O   O156      1.0  0.12390  0.91065  0.86883  1.0000
  H   H311      1.0  0.11632  0.90466  0.88665  1.0000
  H   H312      1.0  0.14145  0.90656  0.87068  1.0000
  O   O157      1.0  0.27220  0.59896  0.44586  1.0000
  H   H313      1.0  0.27964  0.60801  0.42997  1.0000
  H   H314      1.0  0.26771  0.58361  0.43722  1.0000
  O   O158      1.0  0.47082  0.82749  0.93831  1.0000
  H   H315      1.0  0.47627  0.82866  0.95846  1.0000
  H   H316      1.0  0.45637  0.83800  0.93717  1.0000
  O   O159      1.0  0.60352  0.66897  0.01505  1.0000
  H   H317      1.0  0.60468  0.68229  0.00141  1.0000
  H   H318      1.0  0.60123  0.65488  0.00282  1.0000
  O   O160      1.0  0.68691  0.20039  0.61865  1.0000
  H   H319      1.0  0.69883  0.18907  0.61050  1.0000
  H   H320      1.0  0.68781  0.19779  0.63956  1.0000
  O   O161      1.0  0.46247  0.77980  0.89577  1.0000
  H   H321      1.0  0.46635  0.78735  0.87722  1.0000
  H   H322      1.0  0.47108  0.76444  0.89510  1.0000
  O   O162      1.0  0.44217  0.66500  0.99579  1.0000
  H   H323      1.0  0.45280  0.65839  0.98062  1.0000
  H   H324      1.0  0.43367  0.67839  0.98649  1.0000
  O   O163      1.0  0.36009  0.85807  0.96876  1.0000
  H   H325      1.0  0.34483  0.86600  0.96260  1.0000
  H   H326      1.0  0.37215  0.86200  0.95369  1.0000
  O   O164      1.0  0.17593  0.73218  0.05045  1.0000
  H   H327      1.0  0.18678  0.74248  0.06194  1.0000
  H   H328      1.0  0.17673  0.71664  0.06009  1.0000
  O   O165      1.0  0.07496  0.25355  0.63965  1.0000
  H   H329      1.0  0.07434  0.23839  0.65014  1.0000
  H   H330      1.0  0.08103  0.24928  0.62037  1.0000
  O   O166      1.0  0.94398  0.91237  0.31104  1.0000
  H   H331      1.0  0.93277  0.89930  0.31615  1.0000
  H   H332      1.0  0.93313  0.92623  0.30868  1.0000
  O   O167      1.0  0.76559  0.00999  0.81154  1.0000
  H   H333      1.0  0.78276  0.00439  0.81118  1.0000
  H   H334      1.0  0.76290  0.01512  0.83154  1.0000
  O   O168      1.0  0.63172  0.46123  0.78784  1.0000
  H   H335      1.0  0.64269  0.45462  0.80267  1.0000
  H   H336      1.0  0.64026  0.45807  0.76956  1.0000
  O   O169      1.0  0.88224  0.03122  0.26617  1.0000
  H   H337      1.0  0.89848  0.02347  0.26579  1.0000
  H   H338      1.0  0.88529  0.04727  0.25861  1.0000
  O   O170      1.0  0.49112  0.09590  0.60913  1.0000
  H   H339      1.0  0.49377  0.11010  0.59719  1.0000
  H   H340      1.0  0.47740  0.08751  0.59974  1.0000
  O   O171      1.0  0.05341  0.36807  0.37796  1.0000
  H   H341      1.0  0.04392  0.36852  0.39600  1.0000
  H   H342      1.0  0.06746  0.35759  0.38220  1.0000
  O   O172      1.0  0.47513  0.74653  0.37335  1.0000
  H   H343      1.0  0.49280  0.75017  0.37501  1.0000
  H   H344      1.0  0.47042  0.75263  0.35428  1.0000
  O   O173      1.0  0.86818  0.29153  0.46051  1.0000
  H   H345      1.0  0.87138  0.28257  0.47830  1.0000
  H   H346      1.0  0.88272  0.30179  0.45821  1.0000
  O   O174      1.0  0.03148  0.34527  0.82856  1.0000
  H   H347      1.0  0.02652  0.35845  0.84119  1.0000
  H   H348      1.0  0.01668  0.34178  0.81708  1.0000
  O   O175      1.0  0.54019  0.78332  0.39549  1.0000
  H   H349      1.0  0.52890  0.79601  0.40163  1.0000
  H   H350      1.0  0.53811  0.77078  0.41004  1.0000
  O   O176      1.0  0.44219  0.17101  0.76980  1.0000
  H   H351      1.0  0.45086  0.15573  0.76807  1.0000
  H   H352      1.0  0.45539  0.18276  0.77257  1.0000
  O   O177      1.0  0.64430  0.95662  0.27724  1.0000
  H   H353      1.0  0.64239  0.97024  0.26417  1.0000
  H   H354      1.0  0.63284  0.94459  0.26970  1.0000
  O   O178      1.0  0.74540  0.85526  0.19668  1.0000
  H   H355      1.0  0.76081  0.86148  0.20492  1.0000
  H   H356      1.0  0.74301  0.86448  0.17891  1.0000
  O   O179      1.0  0.41539  0.85001  0.21162  1.0000
  H   H357      1.0  0.40376  0.85143  0.22778  1.0000
  H   H358      1.0  0.41695  0.86626  0.20408  1.0000
  O   O180      1.0  0.06397  0.71458  0.48262  1.0000
  H   H359      1.0  0.06555  0.73195  0.48400  1.0000
  H   H360      1.0  0.06861  0.71087  0.46265  1.0000
  O   O181      1.0  0.99113  0.84860  0.07796  1.0000
  H   H361      1.0  0.00302  0.84632  0.09371  1.0000
  H   H362      1.0  0.98731  0.83243  0.07130  1.0000
  O   O182      1.0  0.54401  0.30845  0.81626  1.0000
  H   H363      1.0  0.56113  0.30397  0.81190  1.0000
  H   H364      1.0  0.54280  0.32517  0.81033  1.0000
  O   O183      1.0  0.92312  0.18198  0.97725  1.0000
  H   H365      1.0  0.91954  0.19233  0.96071  1.0000
  H   H366      1.0  0.91653  0.16638  0.97164  1.0000
  O   O184      1.0  0.05039  0.06837  0.66311  1.0000
  H   H367      1.0  0.05877  0.05412  0.67048  1.0000
  H   H368      1.0  0.04275  0.07559  0.68021  1.0000
  O   O185      1.0  0.68407  0.73471  0.84502  1.0000
  H   H369      1.0  0.66905  0.73943  0.83462  1.0000
  H   H370      1.0  0.68252  0.74232  0.86399  1.0000
  O   O186      1.0  0.47138  0.14654  0.73164  1.0000
  H   H371      1.0  0.47542  0.16348  0.72950  1.0000
  H   H372      1.0  0.48458  0.14016  0.74392  1.0000
  O   O187      1.0  0.69107  0.43579  0.22405  1.0000
  H   H373      1.0  0.67854  0.42471  0.21672  1.0000
  H   H374      1.0  0.68161  0.44785  0.23467  1.0000
  O   O188      1.0  0.37359  0.15869  0.94803  1.0000
  H   H375      1.0  0.38936  0.16504  0.94097  1.0000
  H   H376      1.0  0.36188  0.17190  0.94576  1.0000
  O   O189      1.0  0.29878  0.33134  0.95126  1.0000
  H   H377      1.0  0.30781  0.33867  0.93519  1.0000
  H   H378      1.0  0.28622  0.32136  0.94194  1.0000
  O   O190      1.0  0.27553  0.22147  0.53644  1.0000
  H   H379      1.0  0.27976  0.23836  0.53422  1.0000
  H   H380      1.0  0.29121  0.21375  0.54148  1.0000
  O   O191      1.0  0.12988  0.19439  0.63230  1.0000
  H   H381      1.0  0.13318  0.20642  0.61743  1.0000
  H   H382      1.0  0.12257  0.20337  0.64833  1.0000
  O   O192      1.0  0.06230  0.24199  0.09586  1.0000
  H   H383      1.0  0.05955  0.22671  0.10563  1.0000
  H   H384      1.0  0.07994  0.24528  0.09870  1.0000
  O   O193      1.0  0.73734  0.93477  0.82539  1.0000
  H   H385      1.0  0.74699  0.93297  0.84318  1.0000
  H   H386      1.0  0.72357  0.92355  0.82759  1.0000
  O   O194      1.0  0.32797  0.80796  0.85008  1.0000
  H   H387      1.0  0.31429  0.81482  0.83894  1.0000
  H   H388      1.0  0.33572  0.82166  0.85958  1.0000
  O   O195      1.0  0.05981  0.04940  0.83904  1.0000
  H   H389      1.0  0.05674  0.05647  0.85808  1.0000
  H   H390      1.0  0.05775  0.03222  0.84205  1.0000
  O   O196      1.0  0.55401  0.81673  0.94282  1.0000
  H   H391      1.0  0.54215  0.82956  0.93894  1.0000
  H   H392      1.0  0.54379  0.80239  0.94470  1.0000
  O   O197      1.0  0.72634  0.91910  0.42344  1.0000
  H   H393      1.0  0.73313  0.92630  0.40586  1.0000
  H   H394      1.0  0.73733  0.90562  0.42751  1.0000
  O   O198      1.0  0.88914  0.83274  0.14966  1.0000
  H   H395      1.0  0.88568  0.81573  0.14705  1.0000
  H   H396      1.0  0.88652  0.83974  0.13049  1.0000
  O   O199      1.0  0.08208  0.17177  0.00543  1.0000
  H   H397      1.0  0.09207  0.15749  0.00186  1.0000
  H   H398      1.0  0.06669  0.16569  0.01389  1.0000
  O   O200      1.0  0.34554  0.22562  0.38699  1.0000
  H   H399      1.0  0.34077  0.24239  0.38902  1.0000
  H   H400      1.0  0.34395  0.21903  0.40651  1.0000
  O   O201      1.0  0.87012  0.13631  0.73726  1.0000
  H   H401      1.0  0.85771  0.13351  0.75232  1.0000
  H   H402      1.0  0.88030  0.14937  0.74481  1.0000
  O   O202      1.0  0.57238  0.97433  0.87450  1.0000
  H   H403      1.0  0.58230  0.97147  0.89189  1.0000
  H   H404      1.0  0.58171  0.98636  0.86368  1.0000
  O   O203      1.0  0.39762  0.49467  0.22990  1.0000
  H   H405      1.0  0.39873  0.49746  0.25077  1.0000
  H   H406      1.0  0.41370  0.48783  0.22469  1.0000
  O   O204      1.0  0.56984  0.00315  0.47681  1.0000
  H   H407      1.0  0.57600  0.01328  0.49249  1.0000
  H   H408      1.0  0.55752  0.99283  0.48604  1.0000
  O   O205      1.0  0.85954  0.71357  0.81324  1.0000
  H   H409      1.0  0.87168  0.71795  0.82806  1.0000
  H   H410      1.0  0.85437  0.72880  0.80482  1.0000
  O   O206      1.0  0.27814  0.11044  0.26071  1.0000
  H   H411      1.0  0.26867  0.10109  0.24665  1.0000
  H   H412      1.0  0.27162  0.12667  0.25884  1.0000
  O   O207      1.0  0.67723  0.78921  0.28433  1.0000
  H   H413      1.0  0.69166  0.79516  0.29492  1.0000
  H   H414      1.0  0.66479  0.80181  0.28642  1.0000
  O   O208      1.0  0.58470  0.17521  0.31543  1.0000
  H   H415      1.0  0.58295  0.18357  0.33391  1.0000
  H   H416      1.0  0.58490  0.15828  0.32063  1.0000
  O   O209      1.0  0.45824  0.39531  0.10215  1.0000
  H   H417      1.0  0.44893  0.40642  0.11435  1.0000
  H   H418      1.0  0.47388  0.40352  0.09823  1.0000
  O   O210      1.0  0.08535  0.23789  0.40786  1.0000
  H   H419      1.0  0.07088  0.24826  0.40560  1.0000
  H   H420      1.0  0.09942  0.24888  0.40885  1.0000
  O   O211      1.0  0.06366  0.73021  0.00800  1.0000
  H   H421      1.0  0.04752  0.72399  0.00199  1.0000
  H   H422      1.0  0.05973  0.74397  0.02020  1.0000
  O   O212      1.0  0.78960  0.09252  0.76157  1.0000
  H   H423      1.0  0.79652  0.07927  0.77276  1.0000
  H   H424      1.0  0.78946  0.10599  0.77507  1.0000
  O   O213      1.0  0.70826  0.33205  0.26132  1.0000
  H   H425      1.0  0.69628  0.32925  0.27685  1.0000
  H   H426      1.0  0.70613  0.34889  0.25630  1.0000
  O   O214      1.0  0.56304  0.64235  0.83985  1.0000
  H   H427      1.0  0.57717  0.64832  0.85096  1.0000
  H   H428      1.0  0.55210  0.63521  0.85436  1.0000
  O   O215      1.0  0.48349  0.31327  0.66700  1.0000
  H   H429      1.0  0.49674  0.31461  0.65264  1.0000
  H   H430      1.0  0.49042  0.32046  0.68453  1.0000
  O   O216      1.0  0.10480  0.81724  0.11652  1.0000
  H   H431      1.0  0.09462  0.80645  0.10486  1.0000
  H   H432      1.0  0.11925  0.82059  0.10439  1.0000
  O   O217      1.0  0.83658  0.30358  0.40659  1.0000
  H   H433      1.0  0.84597  0.30638  0.38880  1.0000
  H   H434      1.0  0.82209  0.29442  0.40036  1.0000
  O   O218      1.0  0.72203  0.76223  0.77766  1.0000
  H   H435      1.0  0.73942  0.76698  0.77597  1.0000
  H   H436      1.0  0.71271  0.77627  0.77129  1.0000
  O   O219      1.0  0.08478  0.28372  0.70203  1.0000
  H   H437      1.0  0.08228  0.28447  0.72299  1.0000
  H   H438      1.0  0.07380  0.29605  0.69423  1.0000
  O   O220      1.0  0.36227  0.88449  0.12336  1.0000
  H   H439      1.0  0.34632  0.87663  0.12663  1.0000
  H   H440      1.0  0.37442  0.87390  0.13243  1.0000
  O   O221      1.0  0.94443  0.65274  0.88488  1.0000
  H   H441      1.0  0.95788  0.64856  0.87161  1.0000
  H   H442      1.0  0.93003  0.65510  0.87233  1.0000
  O   O222      1.0  0.32456  0.12739  0.12035  1.0000
  H   H443      1.0  0.31725  0.12884  0.10105  1.0000
  H   H444      1.0  0.32959  0.14366  0.12537  1.0000
  O   O223      1.0  0.81165  0.72053  0.40655  1.0000
  H   H445      1.0  0.81959  0.73227  0.39390  1.0000
  H   H446      1.0  0.80658  0.72968  0.42359  1.0000
  O   O224      1.0  0.11031  0.44043  0.66907  1.0000
  H   H447      1.0  0.11960  0.44354  0.68686  1.0000
  H   H448      1.0  0.11671  0.42513  0.66211  1.0000
  O   O225      1.0  0.01018  0.28525  0.39874  1.0000
  H   H449      1.0  0.02537  0.27765  0.39177  1.0000
  H   H450      1.0  0.01397  0.30233  0.39880  1.0000
  O   O226      1.0  0.79999  0.59214  0.00750  1.0000
  H   H451      1.0  0.78819  0.59747  0.99278  1.0000
  H   H452      1.0  0.80705  0.60690  0.01528  1.0000
  O   O227      1.0  0.00795  0.15274  0.17313  1.0000
  H   H453      1.0  0.01738  0.15785  0.15614  1.0000
  H   H454      1.0  0.00742  0.16686  0.18560  1.0000
  O   O228      1.0  0.07586  0.29679  0.12598  1.0000
  H   H455      1.0  0.09057  0.29771  0.11365  1.0000
  H   H456      1.0  0.08225  0.29855  0.14568  1.0000
  O   O229      1.0  0.97233  0.41375  0.51263  1.0000
  H   H457      1.0  0.97619  0.42223  0.53059  1.0000
  H   H458      1.0  0.96225  0.40014  0.51877  1.0000
  O   O230      1.0  0.19786  0.36199  0.45405  1.0000
  H   H459      1.0  0.20762  0.36319  0.43625  1.0000
  H   H460      1.0  0.19047  0.34605  0.45326  1.0000
  O   O231      1.0  0.79490  0.09544  0.04071  1.0000
  H   H461      1.0  0.79093  0.10345  0.02246  1.0000
  H   H462      1.0  0.78247  0.10134  0.05437  1.0000
  O   O232      1.0  0.92635  0.55670  0.80760  1.0000
  H   H463      1.0  0.93443  0.57180  0.81249  1.0000
  H   H464      1.0  0.91806  0.55982  0.78915  1.0000
  O   O233      1.0  0.67024  0.92107  0.00595  1.0000
  H   H465      1.0  0.67569  0.93226  0.02091  1.0000
  H   H466      1.0  0.67226  0.92984  0.98779  1.0000
  O   O234      1.0  0.83235  0.11908  0.16057  1.0000
  H   H467      1.0  0.84391  0.10887  0.17120  1.0000
  H   H468      1.0  0.84119  0.13421  0.15824  1.0000
  O   O235      1.0  0.40621  0.05359  0.80873  1.0000
  H   H469      1.0  0.41540  0.05533  0.79060  1.0000
  H   H470      1.0  0.39509  0.06739  0.80918  1.0000
  O   O236      1.0  0.08084  0.73106  0.93350  1.0000
  H   H471      1.0  0.09731  0.73092  0.92465  1.0000
  H   H472      1.0  0.06944  0.73307  0.91721  1.0000
  O   O237      1.0  0.63159  0.41391  0.17353  1.0000
  H   H473      1.0  0.62898  0.39880  0.16334  1.0000
  H   H474      1.0  0.63640  0.42517  0.15834  1.0000
  O   O238      1.0  0.70861  0.78486  0.35259  1.0000
  H   H475      1.0  0.71579  0.80059  0.35637  1.0000
  H   H476      1.0  0.69635  0.78267  0.36796  1.0000
  O   O239      1.0  0.08147  0.00299  0.60425  1.0000
  H   H477      1.0  0.09803  0.00354  0.61285  1.0000
  H   H478      1.0  0.07081  0.99693  0.61973  1.0000
  O   O240      1.0  0.63402  0.98149  0.62874  1.0000
  H   H479      1.0  0.62648  0.98446  0.64766  1.0000
  H   H480      1.0  0.62076  0.98471  0.61484  1.0000
  O   O241      1.0  0.01202  0.77474  0.13425  1.0000
  H   H481      1.0  0.02164  0.76782  0.15013  1.0000
  H   H482      1.0  0.01967  0.79032  0.13083  1.0000
  O   O242      1.0  0.45779  0.08744  0.79538  1.0000
  H   H483      1.0  0.45653  0.07002  0.79524  1.0000
  H   H484      1.0  0.44416  0.09281  0.78303  1.0000
  O   O243      1.0  0.03956  0.48129  0.69388  1.0000
  H   H485      1.0  0.03171  0.49119  0.67904  1.0000
  H   H486      1.0  0.02667  0.47899  0.70851  1.0000
  O   O244      1.0  0.87658  0.74177  0.43275  1.0000
  H   H487      1.0  0.86403  0.73625  0.44649  1.0000
  H   H488      1.0  0.87435  0.75910  0.43203  1.0000
  O   O245      1.0  0.04763  0.42343  0.84142  1.0000
  H   H489      1.0  0.03582  0.41064  0.83716  1.0000
  H   H490      1.0  0.06385  0.41565  0.84077  1.0000
  O   O246      1.0  0.33598  0.24408  0.01092  1.0000
  H   H491      1.0  0.33270  0.26090  0.01514  1.0000
  H   H492      1.0  0.35113  0.24044  0.02170  1.0000
  O   O247      1.0  0.34677  0.31624  0.18398  1.0000
  H   H493      1.0  0.35345  0.33101  0.19217  1.0000
  H   H494      1.0  0.35254  0.31621  0.16391  1.0000
  O   O248      1.0  0.32244  0.96467  0.78547  1.0000
  H   H495      1.0  0.30760  0.96198  0.77375  1.0000
  H   H496      1.0  0.33541  0.96841  0.77139  1.0000
  O   O249      1.0  0.46457  0.88065  0.43804  1.0000
  H   H497      1.0  0.45247  0.88820  0.45088  1.0000
  H   H498      1.0  0.45810  0.86454  0.43488  1.0000
  O   O250      1.0  0.99728  0.50490  0.20207  1.0000
  H   H499      1.0  0.99075  0.50777  0.22152  1.0000
  H   H500      1.0  0.99654  0.48756  0.19970  1.0000
  O   O251      1.0  0.65018  0.61614  0.24795  1.0000
  H   H501      1.0  0.63748  0.62087  0.26194  1.0000
  H   H502      1.0  0.64160  0.60534  0.23466  1.0000
  O   O252      1.0  0.57323  0.85540  0.50378  1.0000
  H   H503      1.0  0.56998  0.83870  0.50871  1.0000
  H   H504      1.0  0.55807  0.86080  0.49420  1.0000
  O   O253      1.0  0.55857  0.70173  0.64786  1.0000
  H   H505      1.0  0.54097  0.69786  0.64984  1.0000
  H   H506      1.0  0.56496  0.68980  0.63430  1.0000
  O   O254      1.0  0.60953  0.19986  0.20531  1.0000
  H   H507      1.0  0.60395  0.18674  0.21768  1.0000
  H   H508      1.0  0.59857  0.21317  0.21022  1.0000
  O   O255      1.0  0.21866  0.53026  0.71659  1.0000
  H   H509      1.0  0.21364  0.52274  0.69840  1.0000
  H   H510      1.0  0.23649  0.52728  0.71786  1.0000
  O   O256      1.0  0.59294  0.14362  0.69546  1.0000
  H   H511      1.0  0.60438  0.13868  0.68016  1.0000
  H   H512      1.0  0.59589  0.13229  0.71120  1.0000
  O   O257      1.0  0.24273  0.15998  0.10193  1.0000
  H   H513      1.0  0.25419  0.15400  0.08721  1.0000
  H   H514      1.0  0.24797  0.17648  0.10528  1.0000
  O   O258      1.0  0.07172  0.42142  0.12165  1.0000
  H   H515      1.0  0.08151  0.41084  0.10927  1.0000
  H   H516      1.0  0.07002  0.43614  0.11040  1.0000
  O   O259      1.0  0.43362  0.32563  0.55676  1.0000
  H   H517      1.0  0.43620  0.31244  0.57032  1.0000
  H   H518      1.0  0.43748  0.33997  0.56798  1.0000
  O   O260      1.0  0.23631  0.16877  0.77182  1.0000
  H   H519      1.0  0.23617  0.18269  0.75903  1.0000
  H   H520      1.0  0.21894  0.16649  0.77723  1.0000
  O   O261      1.0  0.70423  0.32954  0.92307  1.0000
  H   H521      1.0  0.71345  0.33812  0.90809  1.0000
  H   H522      1.0  0.68825  0.33774  0.92405  1.0000
  O   O262      1.0  0.51588  0.37528  0.72787  1.0000
  H   H523      1.0  0.51946  0.38830  0.71439  1.0000
  H   H524      1.0  0.50511  0.36448  0.71698  1.0000
  O   O263      1.0  0.96638  0.82144  0.52108  1.0000
  H   H525      1.0  0.98265  0.82861  0.51771  1.0000
  H   H526      1.0  0.95466  0.83268  0.51241  1.0000
  O   O264      1.0  0.25145  0.82671  0.50551  1.0000
  H   H527      1.0  0.23640  0.83594  0.50925  1.0000
  H   H528      1.0  0.26453  0.83542  0.51568  1.0000
  O   O265      1.0  0.40874  0.36467  0.71362  1.0000
  H   H529      1.0  0.42009  0.37124  0.72808  1.0000
  H   H530      1.0  0.41934  0.35524  0.70079  1.0000
  O   O266      1.0  0.66627  0.39203  0.72611  1.0000
  H   H531      1.0  0.67409  0.40007  0.74255  1.0000
  H   H532      1.0  0.68000  0.38832  0.71302  1.0000
  O   O267      1.0  0.26885  0.20534  0.47126  1.0000
  H   H533      1.0  0.27645  0.22071  0.46651  1.0000
  H   H534      1.0  0.26031  0.20056  0.45350  1.0000
  O   O268      1.0  0.07017  0.55187  0.60517  1.0000
  H   H535      1.0  0.05973  0.55943  0.59047  1.0000
  H   H536      1.0  0.07262  0.53557  0.59813  1.0000
  O   O269      1.0  0.50097  0.93961  0.45372  1.0000
  H   H537      1.0  0.50543  0.92689  0.44017  1.0000
  H   H538      1.0  0.49311  0.93131  0.46995  1.0000
  O   O270      1.0  0.53699  0.54076  0.79320  1.0000
  H   H539      1.0  0.53744  0.55302  0.80828  1.0000
  H   H540      1.0  0.52005  0.54140  0.78567  1.0000
  O   O271      1.0  0.50632  0.33237  0.55710  1.0000
  H   H541      1.0  0.51499  0.31933  0.56691  1.0000
  H   H542      1.0  0.49548  0.32440  0.54314  1.0000
  O   O272      1.0  0.88913  0.78126  0.94046  1.0000
  H   H543      1.0  0.88993  0.79272  0.95642  1.0000
  H   H544      1.0  0.89641  0.76664  0.94836  1.0000
  O   O273      1.0  0.56373  0.91014  0.47391  1.0000
  H   H545      1.0  0.56321  0.89546  0.46246  1.0000
  H   H546      1.0  0.57286  0.90576  0.49142  1.0000
  O   O274      1.0  0.74342  0.63086  0.43868  1.0000
  H   H547      1.0  0.72610  0.63153  0.44487  1.0000
  H   H548      1.0  0.74774  0.61391  0.43974  1.0000
  O   O275      1.0  0.42445  0.17207  0.71097  1.0000
  H   H549      1.0  0.41115  0.17536  0.69713  1.0000
  H   H550      1.0  0.43605  0.18534  0.70852  1.0000
  O   O276      1.0  0.29119  0.00219  0.94198  1.0000
  H   H551      1.0  0.27592  0.00722  0.95162  1.0000
  H   H552      1.0  0.28962  0.00832  0.92223  1.0000
  O   O277      1.0  0.81880  0.96182  0.96454  1.0000
  H   H553      1.0  0.81584  0.95260  0.94689  1.0000
  H   H554      1.0  0.80851  0.95407  0.97922  1.0000
  O   O278      1.0  0.75810  0.17756  0.55858  1.0000
  H   H555      1.0  0.75382  0.17581  0.53811  1.0000
  H   H556      1.0  0.77617  0.17619  0.55909  1.0000
  O   O279      1.0  0.42829  0.33901  0.95067  1.0000
  H   H557      1.0  0.44341  0.32944  0.94934  1.0000
  H   H558      1.0  0.41743  0.33251  0.93566  1.0000
  O   O280      1.0  0.63242  0.97764  0.83891  1.0000
  H   H559      1.0  0.62702  0.96806  0.85546  1.0000
  H   H560      1.0  0.64217  0.96662  0.82708  1.0000
  O   O281      1.0  0.28615  0.72483  0.50714  1.0000
  H   H561      1.0  0.30071  0.73181  0.51650  1.0000
  H   H562      1.0  0.27270  0.72721  0.52105  1.0000
  O   O282      1.0  0.78273  0.39747  0.35039  1.0000
  H   H563      1.0  0.76845  0.39402  0.33802  1.0000
  H   H564      1.0  0.78615  0.38238  0.36028  1.0000
  O   O283      1.0  0.78522  0.34969  0.79120  1.0000
  H   H565      1.0  0.79632  0.33932  0.80226  1.0000
  H   H566      1.0  0.77747  0.33908  0.77703  1.0000
  O   O284      1.0  0.42124  0.57414  0.39177  1.0000
  H   H567      1.0  0.42678  0.56690  0.40993  1.0000
  H   H568      1.0  0.43617  0.58143  0.38363  1.0000
  O   O285      1.0  0.69752  0.61955  0.72519  1.0000
  H   H569      1.0  0.69204  0.60321  0.72906  1.0000
  H   H570      1.0  0.70813  0.62358  0.74165  1.0000
  O   O286      1.0  0.95194  0.78342  0.56696  1.0000
  H   H571      1.0  0.93445  0.78088  0.57160  1.0000
  H   H572      1.0  0.95980  0.76799  0.57073  1.0000
  O   O287      1.0  0.38654  0.24104  0.13670  1.0000
  H   H573      1.0  0.39599  0.25431  0.14493  1.0000
  H   H574      1.0  0.37811  0.23384  0.15329  1.0000
  O   O288      1.0  0.50850  0.03024  0.88810  1.0000
  H   H575      1.0  0.51561  0.04031  0.87291  1.0000
  H   H576      1.0  0.50967  0.03991  0.90568  1.0000
  O   O289      1.0  0.54767  0.61314  0.55185  1.0000
  H   H577      1.0  0.52975  0.61432  0.55468  1.0000
  H   H578      1.0  0.55047  0.61951  0.53240  1.0000
  O   O290      1.0  0.12784  0.54416  0.38222  1.0000
  H   H579      1.0  0.13248  0.53476  0.39923  1.0000
  H   H580      1.0  0.13666  0.53658  0.36616  1.0000
  O   O291      1.0  0.56390  0.30943  0.73167  1.0000
  H   H581      1.0  0.55049  0.29786  0.72911  1.0000
  H   H582      1.0  0.56790  0.30862  0.75230  1.0000
  O   O292      1.0  0.53123  0.14259  0.70141  1.0000
  H   H583      1.0  0.51496  0.14319  0.71073  1.0000
  H   H584      1.0  0.53470  0.15915  0.69603  1.0000
  O   O293      1.0  0.45617  0.23159  0.58887  1.0000
  H   H585      1.0  0.44215  0.22106  0.59307  1.0000
  H   H586      1.0  0.46607  0.22278  0.57471  1.0000
  O   O294      1.0  0.37852  0.99081  0.73050  1.0000
  H   H587      1.0  0.36644  0.99861  0.71785  1.0000
  H   H588      1.0  0.38501  0.00370  0.74262  1.0000
  O   O295      1.0  0.49026  0.04660  0.36223  1.0000
  H   H589      1.0  0.50601  0.04280  0.35280  1.0000
  H   H590      1.0  0.49178  0.06343  0.36766  1.0000
  O   O296      1.0  0.10176  0.18247  0.34651  1.0000
  H   H591      1.0  0.10608  0.18926  0.32767  1.0000
  H   H592      1.0  0.11535  0.18725  0.35927  1.0000
  O   O297      1.0  0.48697  0.56016  0.16202  1.0000
  H   H593      1.0  0.46938  0.56325  0.16555  1.0000
  H   H594      1.0  0.49026  0.56746  0.14316  1.0000
  O   O298      1.0  0.88777  0.52008  0.55011  1.0000
  H   H595      1.0  0.87571  0.51061  0.56099  1.0000
  H   H596      1.0  0.89382  0.50925  0.53507  1.0000
  O   O299      1.0  0.01988  0.66864  0.03695  1.0000
  H   H597      1.0  0.03706  0.66902  0.04369  1.0000
  H   H598      1.0  0.02111  0.66969  0.01586  1.0000
  O   O300      1.0  0.14042  0.22348  0.13562  1.0000
  H   H599      1.0  0.12695  0.23512  0.13423  1.0000
  H   H600      1.0  0.14572  0.22098  0.11559  1.0000
  O   O301      1.0  0.66535  0.26088  0.01255  1.0000
  H   H601      1.0  0.65788  0.24749  0.00211  1.0000
  H   H602      1.0  0.66012  0.27503  0.00174  1.0000
  O   O302      1.0  0.88167  0.40683  0.94488  1.0000
  H   H603      1.0  0.89018  0.39225  0.95100  1.0000
  H   H604      1.0  0.89195  0.41981  0.95242  1.0000
  O   O303      1.0  0.89208  0.50335  0.24511  1.0000
  H   H605      1.0  0.88624  0.50544  0.26500  1.0000
  H   H606      1.0  0.88632  0.51763  0.23494  1.0000
  O   O304      1.0  0.32883  0.82226  0.27872  1.0000
  H   H607      1.0  0.31448  0.81372  0.28650  1.0000
  H   H608      1.0  0.32174  0.83412  0.26556  1.0000
  O   O305      1.0  0.38913  0.71468  0.34495  1.0000
  H   H609      1.0  0.38107  0.70495  0.35981  1.0000
  H   H610      1.0  0.40630  0.70905  0.34467  1.0000
  O   O306      1.0  0.19670  0.71250  0.42199  1.0000
  H   H611      1.0  0.18684  0.69940  0.41399  1.0000
  H   H612      1.0  0.18603  0.71965  0.43677  1.0000
  O   O307      1.0  0.79884  0.33272  0.43288  1.0000
  H   H613      1.0  0.79553  0.34988  0.43374  1.0000
  H   H614      1.0  0.78488  0.32614  0.42197  1.0000
  O   O308      1.0  0.83875  0.51487  0.75311  1.0000
  H   H615      1.0  0.83456  0.52050  0.73367  1.0000
  H   H616      1.0  0.85485  0.50705  0.75082  1.0000
  O   O309      1.0  0.63385  0.17069  0.72787  1.0000
  H   H617      1.0  0.62304  0.16224  0.74144  1.0000
  H   H618      1.0  0.63941  0.15836  0.71434  1.0000
  O   O310      1.0  0.34509  0.96300  0.42063  1.0000
  H   H619      1.0  0.32809  0.96819  0.41684  1.0000
  H   H620      1.0  0.34785  0.96677  0.44105  1.0000
  O   O311      1.0  0.60982  0.45363  0.71330  1.0000
  H   H621      1.0  0.60133  0.45447  0.69462  1.0000
  H   H622      1.0  0.60174  0.46585  0.72514  1.0000
  O   O312      1.0  0.31585  0.30207  0.62612  1.0000
  H   H623      1.0  0.30999  0.29261  0.60969  1.0000
  H   H624      1.0  0.33327  0.29758  0.62830  1.0000
  O   O313      1.0  0.89311  0.11565  0.67286  1.0000
  H   H625      1.0  0.90329  0.12484  0.65933  1.0000
  H   H626      1.0  0.88905  0.10099  0.66237  1.0000
  O   O314      1.0  0.76837  0.91114  0.12611  1.0000
  H   H627      1.0  0.76144  0.89812  0.11454  1.0000
  H   H628      1.0  0.78523  0.90594  0.13066  1.0000
  O   O315      1.0  0.11438  0.85303  0.37921  1.0000
  H   H629      1.0  0.11542  0.83577  0.37617  1.0000
  H   H630      1.0  0.13138  0.85872  0.37664  1.0000
  O   O316      1.0  0.35364  0.36298  0.72182  1.0000
  H   H631      1.0  0.34595  0.37439  0.73511  1.0000
  H   H632      1.0  0.33991  0.35302  0.71509  1.0000
  O   O317      1.0  0.86912  0.55184  0.38133  1.0000
  H   H633      1.0  0.88611  0.54697  0.37689  1.0000
  H   H634      1.0  0.86181  0.55554  0.36247  1.0000
  O   O318      1.0  0.16404  0.68624  0.29303  1.0000
  H   H635      1.0  0.18179  0.68354  0.29023  1.0000
  H   H636      1.0  0.15947  0.69746  0.27770  1.0000
  O   O319      1.0  0.45706  0.72635  0.59820  1.0000
  H   H637      1.0  0.45197  0.73657  0.61432  1.0000
  H   H638      1.0  0.45873  0.73725  0.58177  1.0000
  O   O320      1.0  0.08379  0.82327  0.44578  1.0000
  H   H639      1.0  0.09731  0.81416  0.45457  1.0000
  H   H640      1.0  0.07818  0.81334  0.42963  1.0000
  O   O321      1.0  0.61306  0.35129  0.87991  1.0000
  H   H641      1.0  0.61896  0.35767  0.86143  1.0000
  H   H642      1.0  0.62799  0.34524  0.88943  1.0000
  O   O322      1.0  0.30176  0.07766  0.16579  1.0000
  H   H643      1.0  0.28808  0.07128  0.17735  1.0000
  H   H644      1.0  0.31646  0.07522  0.17783  1.0000
  O   O323      1.0  0.24909  0.71645  0.65628  1.0000
  H   H645      1.0  0.25244  0.72864  0.64162  1.0000
  H   H646      1.0  0.26178  0.71904  0.67108  1.0000
  O   O324      1.0  0.98286  0.71147  0.37237  1.0000
  H   H647      1.0  0.98044  0.70840  0.39303  1.0000
  H   H648      1.0  0.99771  0.72147  0.37148  1.0000
  O   O325      1.0  0.52205  0.95413  0.52869  1.0000
  H   H649      1.0  0.50712  0.96394  0.52699  1.0000
  H   H650      1.0  0.53559  0.96566  0.53042  1.0000
  O   O326      1.0  0.73715  0.69329  0.27137  1.0000
  H   H651      1.0  0.75119  0.69325  0.28477  1.0000
  H   H652      1.0  0.72267  0.69055  0.28367  1.0000
  O   O327      1.0  0.39401  0.46422  0.36051  1.0000
  H   H653      1.0  0.41030  0.46139  0.35186  1.0000
  H   H654      1.0  0.39726  0.47511  0.37663  1.0000
  O   O328      1.0  0.67723  0.59255  0.44340  1.0000
  H   H655      1.0  0.68358  0.60878  0.44087  1.0000
  H   H656      1.0  0.65954  0.59379  0.43899  1.0000
  O   O329      1.0  0.66182  0.47417  0.04826  1.0000
  H   H657      1.0  0.67351  0.48404  0.05917  1.0000
  H   H658      1.0  0.64769  0.48470  0.04462  1.0000
  O   O330      1.0  0.68730  0.53223  0.77296  1.0000
  H   H659      1.0  0.69789  0.54630  0.77086  1.0000
  H   H660      1.0  0.68133  0.53299  0.79294  1.0000
  O   O331      1.0  0.28899  0.17433  0.34793  1.0000
  H   H661      1.0  0.27577  0.18623  0.34922  1.0000
  H   H662      1.0  0.29636  0.17406  0.36728  1.0000
  O   O332      1.0  0.41113  0.45488  0.70872  1.0000
  H   H663      1.0  0.40013  0.44383  0.69852  1.0000
  H   H664      1.0  0.41983  0.46344  0.69332  1.0000
  O   O333      1.0  0.29982  0.22917  0.97449  1.0000
  H   H665      1.0  0.29696  0.24605  0.97014  1.0000
  H   H666      1.0  0.29028  0.22057  0.95981  1.0000
  O   O334      1.0  0.06045  0.80938  0.71154  1.0000
  H   H667      1.0  0.05735  0.82056  0.72740  1.0000
  H   H668      1.0  0.06074  0.79367  0.72080  1.0000
  O   O335      1.0  0.35485  0.52982  0.93979  1.0000
  H   H669      1.0  0.36596  0.53749  0.95371  1.0000
  H   H670      1.0  0.34233  0.54195  0.93551  1.0000
  O   O336      1.0  0.38474  0.17631  0.67651  1.0000
  H   H671      1.0  0.37366  0.17496  0.69319  1.0000
  H   H672      1.0  0.38407  0.19320  0.67118  1.0000
  O   O337      1.0  0.94075  0.26248  0.58368  1.0000
  H   H673      1.0  0.93480  0.26338  0.60366  1.0000
  H   H674      1.0  0.92568  0.26274  0.57191  1.0000
  O   O338      1.0  0.78416  0.77187  0.80971  1.0000
  H   H675      1.0  0.78814  0.76822  0.82989  1.0000
  H   H676      1.0  0.76978  0.78247  0.81082  1.0000
  O   O339      1.0  0.99006  0.10498  0.79594  1.0000
  H   H677      1.0  0.98390  0.08941  0.80230  1.0000
  H   H678      1.0  0.99437  0.11329  0.81388  1.0000
  O   O340      1.0  0.94533  0.82805  0.92967  1.0000
  H   H679      1.0  0.93089  0.81862  0.92387  1.0000
  H   H680      1.0  0.94294  0.84351  0.92022  1.0000
  O   O341      1.0  0.52986  0.83692  0.38065  1.0000
  H   H681      1.0  0.52334  0.84540  0.39753  1.0000
  H   H682      1.0  0.54782  0.83680  0.38355  1.0000
  O   O342      1.0  0.85661  0.03524  0.20098  1.0000
  H   H683      1.0  0.85608  0.05264  0.19922  1.0000
  H   H684      1.0  0.86071  0.02963  0.18150  1.0000
  O   O343      1.0  0.18808  0.85910  0.54776  1.0000
  H   H685      1.0  0.20593  0.86073  0.55089  1.0000
  H   H686      1.0  0.18631  0.84411  0.53709  1.0000
  O   O344      1.0  0.26446  0.55495  0.47922  1.0000
  H   H687      1.0  0.27045  0.54410  0.46417  1.0000
  H   H688      1.0  0.24642  0.55468  0.47720  1.0000
  O   O345      1.0  0.28817  0.99907  0.60106  1.0000
  H   H689      1.0  0.30617  0.99849  0.59859  1.0000
  H   H690      1.0  0.28364  0.98290  0.60706  1.0000
  O   O346      1.0  0.03903  0.14059  0.47594  1.0000
  H   H691      1.0  0.04713  0.12502  0.47433  1.0000
  H   H692      1.0  0.04666  0.15026  0.46072  1.0000
  O   O347      1.0  0.65369  0.68602  0.04755  1.0000
  H   H693      1.0  0.64835  0.70268  0.04631  1.0000
  H   H694      1.0  0.67168  0.68690  0.04991  1.0000
  O   O348      1.0  0.55901  0.56370  0.27475  1.0000
  H   H695      1.0  0.57222  0.55514  0.26463  1.0000
  H   H696      1.0  0.54391  0.55950  0.26419  1.0000
  O   O349      1.0  0.93428  0.52594  0.94423  1.0000
  H   H697      1.0  0.91978  0.53009  0.93255  1.0000
  H   H698      1.0  0.94526  0.51749  0.93084  1.0000
  O   O350      1.0  0.65209  0.76272  0.36852  1.0000
  H   H699      1.0  0.63853  0.76949  0.37992  1.0000
  H   H700      1.0  0.66406  0.77576  0.36670  1.0000
  O   O351      1.0  0.06976  0.44707  0.77910  1.0000
  H   H701      1.0  0.07709  0.45797  0.76493  1.0000
  H   H702      1.0  0.08090  0.43329  0.77932  1.0000
  O   O352      1.0  0.44349  0.15268  0.82955  1.0000
  H   H703      1.0  0.46101  0.15019  0.83407  1.0000
  H   H704      1.0  0.44321  0.15581  0.80872  1.0000
  O   O353      1.0  0.70234  0.34212  0.39993  1.0000
  H   H705      1.0  0.71897  0.34835  0.39613  1.0000
  H   H706      1.0  0.69459  0.35418  0.41230  1.0000
  O   O354      1.0  0.64714  0.10207  0.70727  1.0000
  H   H707      1.0  0.63322  0.10815  0.71865  1.0000
  H   H708      1.0  0.66166  0.11023  0.71520  1.0000
  O   O355      1.0  0.90218  0.69734  0.61194  1.0000
  H   H709      1.0  0.88714  0.70669  0.60853  1.0000
  H   H710      1.0  0.90755  0.70199  0.63136  1.0000
  O   O356      1.0  0.56853  0.32247  0.39888  1.0000
  H   H711      1.0  0.55779  0.30850  0.39677  1.0000
  H   H712      1.0  0.57498  0.32131  0.41862  1.0000
  O   O357      1.0  0.77288  0.82967  0.32361  1.0000
  H   H713      1.0  0.77838  0.81339  0.31943  1.0000
  H   H714      1.0  0.77710  0.83873  0.30618  1.0000
  O   O358      1.0  0.15456  0.38887  0.11415  1.0000
  H   H715      1.0  0.16931  0.38115  0.10617  1.0000
  H   H716      1.0  0.15744  0.38918  0.13506  1.0000
  O   O359      1.0  0.06119  0.71694  0.07034  1.0000
  H   H717      1.0  0.05333  0.73267  0.07090  1.0000
  H   H718      1.0  0.05647  0.70944  0.08865  1.0000
  O   O360      1.0  0.33452  0.97631  0.93749  1.0000
  H   H719      1.0  0.34209  0.97639  0.91825  1.0000
  H   H720      1.0  0.34823  0.97277  0.95067  1.0000
  O   O361      1.0  0.46751  0.64315  0.66858  1.0000
  H   H721      1.0  0.47758  0.65684  0.67447  1.0000
  H   H722      1.0  0.45351  0.64318  0.68203  1.0000
  O   O362      1.0  0.03633  0.92152  0.77005  1.0000
  H   H723      1.0  0.04781  0.93502  0.76905  1.0000
  H   H724      1.0  0.01987  0.92885  0.77000  1.0000
  O   O363      1.0  0.08490  0.73487  0.39360  1.0000
  H   H725      1.0  0.09280  0.73118  0.37507  1.0000
  H   H726      1.0  0.08070  0.71928  0.40179  1.0000
  O   O364      1.0  0.08486  0.95103  0.18243  1.0000
  H   H727      1.0  0.08999  0.95119  0.16211  1.0000
  H   H728      1.0  0.09745  0.96053  0.19241  1.0000
  O   O365      1.0  0.03866  0.84087  0.19651  1.0000
  H   H729      1.0  0.03415  0.82649  0.18571  1.0000
  H   H730      1.0  0.05488  0.84541  0.18881  1.0000
  O   O366      1.0  0.51201  0.88397  0.72081  1.0000
  H   H731      1.0  0.52915  0.87828  0.72119  1.0000
  H   H732      1.0  0.50924  0.88876  0.70070  1.0000
  O   O367      1.0  0.00334  0.41261  0.35193  1.0000
  H   H733      1.0  0.98805  0.41657  0.36225  1.0000
  H   H734      1.0  0.01580  0.42330  0.36022  1.0000
  O   O368      1.0  0.41957  0.64151  0.80115  1.0000
  H   H735      1.0  0.42802  0.63577  0.81855  1.0000
  H   H736      1.0  0.41270  0.65701  0.80675  1.0000
  O   O369      1.0  0.50678  0.11286  0.66691  1.0000
  H   H737      1.0  0.49402  0.12233  0.65718  1.0000
  H   H738      1.0  0.50255  0.11387  0.68747  1.0000
  O   O370      1.0  0.99689  0.96081  0.48493  1.0000
  H   H739      1.0  0.99336  0.97720  0.47888  1.0000
  H   H740      1.0  0.98381  0.95702  0.49885  1.0000
  O   O371      1.0  0.59052  0.62812  0.37220  1.0000
  H   H741      1.0  0.57759  0.61862  0.36283  1.0000
  H   H742      1.0  0.58716  0.62651  0.39292  1.0000
  O   O372      1.0  0.46055  0.87602  0.35062  1.0000
  H   H743      1.0  0.44484  0.88378  0.34579  1.0000
  H   H744      1.0  0.47287  0.88425  0.33871  1.0000
  O   O373      1.0  0.03744  0.62126  0.16663  1.0000
  H   H745      1.0  0.03711  0.61137  0.18408  1.0000
  H   H746      1.0  0.05436  0.62749  0.16580  1.0000
  O   O374      1.0  0.56971  0.87146  0.34223  1.0000
  H   H747      1.0  0.58353  0.86102  0.34748  1.0000
  H   H748      1.0  0.57269  0.87551  0.32193  1.0000
  O   O375      1.0  0.52302  0.48364  0.31934  1.0000
  H   H749      1.0  0.53857  0.47534  0.31517  1.0000
  H   H750      1.0  0.52187  0.49597  0.30440  1.0000
  O   O376      1.0  0.74664  0.44727  0.41353  1.0000
  H   H751      1.0  0.73375  0.43849  0.42395  1.0000
  H   H752      1.0  0.73810  0.46121  0.40559  1.0000
  O   O377      1.0  0.27460  0.27011  0.07241  1.0000
  H   H753      1.0  0.29252  0.26920  0.07544  1.0000
  H   H754      1.0  0.27190  0.26232  0.05372  1.0000
  O   O378      1.0  0.35664  0.91327  0.25434  1.0000
  H   H755      1.0  0.34887  0.89754  0.25580  1.0000
  H   H756      1.0  0.35184  0.92146  0.27218  1.0000
  O   O379      1.0  0.56157  0.73999  0.37245  1.0000
  H   H757      1.0  0.54928  0.73301  0.38551  1.0000
  H   H758      1.0  0.57015  0.72625  0.36406  1.0000
  O   O380      1.0  0.35370  0.10687  0.65115  1.0000
  H   H759      1.0  0.35899  0.09395  0.66399  1.0000
  H   H760      1.0  0.35684  0.10079  0.63163  1.0000
  O   O381      1.0  0.55957  0.94381  0.66708  1.0000
  H   H761      1.0  0.55861  0.94105  0.68796  1.0000
  H   H762      1.0  0.57597  0.93790  0.66158  1.0000
  O   O382      1.0  0.09951  0.99781  0.44347  1.0000
  H   H763      1.0  0.10933  0.00586  0.42859  1.0000
  H   H764      1.0  0.08738  0.00977  0.44961  1.0000
  O   O383      1.0  0.44629  0.28352  0.45899  1.0000
  H   H765      1.0  0.43161  0.29246  0.45293  1.0000
  H   H766      1.0  0.45143  0.29113  0.47708  1.0000
  O   O384      1.0  0.46599  0.48245  0.53319  1.0000
  H   H767      1.0  0.46337  0.48199  0.51224  1.0000
  H   H768      1.0  0.45622  0.49612  0.53979  1.0000
  O   O385      1.0  0.01704  0.55480  0.78340  1.0000
  H   H769      1.0  0.00179  0.56403  0.78098  1.0000
  H   H770      1.0  0.01138  0.53857  0.78755  1.0000
  O   O386      1.0  0.97061  0.29193  0.85067  1.0000
  H   H771      1.0  0.96336  0.27952  0.83842  1.0000
  H   H772      1.0  0.95636  0.29988  0.85953  1.0000
  O   O387      1.0  0.86064  0.96928  0.81867  1.0000
  H   H773      1.0  0.85167  0.98382  0.82391  1.0000
  H   H774      1.0  0.87741  0.97475  0.81407  1.0000
  O   O388      1.0  0.79317  0.35884  0.31412  1.0000
  H   H775      1.0  0.80727  0.34790  0.31317  1.0000
  H   H776      1.0  0.78035  0.34990  0.32446  1.0000
  O   O389      1.0  0.57650  0.42857  0.16498  1.0000
  H   H777      1.0  0.56995  0.44454  0.16889  1.0000
  H   H778      1.0  0.59338  0.43135  0.15804  1.0000
  O   O390      1.0  0.77240  0.17858  0.26794  1.0000
  H   H779      1.0  0.77265  0.19303  0.27984  1.0000
  H   H780      1.0  0.76463  0.18359  0.24979  1.0000
  O   O391      1.0  0.31212  0.59718  0.21001  1.0000
  H   H781      1.0  0.29706  0.60574  0.21560  1.0000
  H   H782      1.0  0.31387  0.58462  0.22459  1.0000
  O   O392      1.0  0.90363  0.60169  0.38648  1.0000
  H   H783      1.0  0.89808  0.61580  0.39714  1.0000
  H   H784      1.0  0.89555  0.60302  0.36759  1.0000
  O   O393      1.0  0.57671  0.24434  0.89755  1.0000
  H   H785      1.0  0.55951  0.23920  0.89510  1.0000
  H   H786      1.0  0.58041  0.24111  0.91791  1.0000
  O   O394      1.0  0.28155  0.68556  0.13041  1.0000
  H   H787      1.0  0.26502  0.69218  0.13374  1.0000
  H   H788      1.0  0.28133  0.68042  0.11016  1.0000
  O   O395      1.0  0.41931  0.95101  0.47529  1.0000
  H   H789      1.0  0.43401  0.94823  0.48721  1.0000
  H   H790      1.0  0.40603  0.94240  0.48523  1.0000
  O   O396      1.0  0.70439  0.39241  0.93109  1.0000
  H   H791      1.0  0.71477  0.38436  0.91673  1.0000
  H   H792      1.0  0.70180  0.40842  0.92317  1.0000
  O   O397      1.0  0.87881  0.33701  0.91795  1.0000
  H   H793      1.0  0.86668  0.32555  0.91057  1.0000
  H   H794      1.0  0.87148  0.35264  0.91394  1.0000
  O   O398      1.0  0.86739  0.99713  0.75121  1.0000
  H   H795      1.0  0.86245  0.00820  0.76654  1.0000
  H   H796      1.0  0.87956  0.98662  0.76037  1.0000
  O   O399      1.0  0.63815  0.73297  0.08212  1.0000
  H   H797      1.0  0.62152  0.73962  0.08454  1.0000
  H   H798      1.0  0.64410  0.73979  0.06389  1.0000
  O   O400      1.0  0.96005  0.46759  0.36719  1.0000
  H   H799      1.0  0.96320  0.45076  0.36292  1.0000
  H   H800      1.0  0.95037  0.47330  0.35067  1.0000
  O   O401      1.0  0.07222  0.50799  0.17807  1.0000
  H   H801      1.0  0.07779  0.49206  0.17230  1.0000
  H   H802      1.0  0.08507  0.51875  0.17080  1.0000
  O   O402      1.0  0.49217  0.62632  0.52142  1.0000
  H   H803      1.0  0.48761  0.62839  0.54177  1.0000
  H   H804      1.0  0.50623  0.63710  0.51858  1.0000
  O   O403      1.0  0.09948  0.09079  0.97224  1.0000
  H   H805      1.0  0.10574  0.08041  0.98763  1.0000
  H   H806      1.0  0.10636  0.10653  0.97672  1.0000
  O   O404      1.0  0.82004  0.57839  0.23971  1.0000
  H   H807      1.0  0.83654  0.58244  0.24696  1.0000
  H   H808      1.0  0.81090  0.57316  0.25687  1.0000
  O   O405      1.0  0.55350  0.46527  0.81207  1.0000
  H   H809      1.0  0.56101  0.45945  0.83000  1.0000
  H   H810      1.0  0.53797  0.45635  0.81042  1.0000
  O   O406      1.0  0.57906  0.30981  0.14358  1.0000
  H   H811      1.0  0.57911  0.30829  0.12249  1.0000
  H   H812      1.0  0.58876  0.32423  0.14741  1.0000
  O   O407      1.0  0.92016  0.55533  0.29319  1.0000
  H   H813      1.0  0.90974  0.54418  0.30403  1.0000
  H   H814      1.0  0.93630  0.54744  0.29204  1.0000
  O   O408      1.0  0.44329  0.44408  0.24638  1.0000
  H   H815      1.0  0.44387  0.46142  0.24382  1.0000
  H   H816      1.0  0.45199  0.43770  0.22948  1.0000
  O   O409      1.0  0.37941  0.64613  0.26996  1.0000
  H   H817      1.0  0.38945  0.65949  0.26298  1.0000
  H   H818      1.0  0.38671  0.63204  0.26079  1.0000
  O   O410      1.0  0.87109  0.21219  0.17629  1.0000
  H   H819      1.0  0.88696  0.21578  0.16701  1.0000
  H   H820      1.0  0.87454  0.19838  0.18862  1.0000
  O   O411      1.0  0.34744  0.77536  0.62546  1.0000
  H   H821      1.0  0.36179  0.78587  0.62315  1.0000
  H   H822      1.0  0.35418  0.75923  0.62344  1.0000
  O   O412      1.0  0.76838  0.23362  0.89453  1.0000
  H   H823      1.0  0.77742  0.22459  0.90927  1.0000
  H   H824      1.0  0.77318  0.25024  0.89784  1.0000
  O   O413      1.0  0.75722  0.64454  0.75912  1.0000
  H   H825      1.0  0.74388  0.64202  0.74511  1.0000
  H   H826      1.0  0.75013  0.65540  0.77349  1.0000
  O   O414      1.0  0.89124  0.51321  0.99087  1.0000
  H   H827      1.0  0.89229  0.53055  0.98859  1.0000
  H   H828      1.0  0.87983  0.51088  0.00708  1.0000
  O   O415      1.0  0.89905  0.62202  0.93829  1.0000
  H   H829      1.0  0.89250  0.63817  0.94080  1.0000
  H   H830      1.0  0.91555  0.62257  0.94704  1.0000
  O   O416      1.0  0.51656  0.84085  0.75747  1.0000
  H   H831      1.0  0.53285  0.83807  0.74881  1.0000
  H   H832      1.0  0.51849  0.83601  0.77769  1.0000
  O   O417      1.0  0.08744  0.60231  0.95834  1.0000
  H   H833      1.0  0.09463  0.58667  0.95408  1.0000
  H   H834      1.0  0.07952  0.60718  0.94022  1.0000
  O   O418      1.0  0.11195  0.15630  0.74883  1.0000
  H   H835      1.0  0.12159  0.14798  0.73401  1.0000
  H   H836      1.0  0.12439  0.16398  0.76112  1.0000
  O   O419      1.0  0.20877  0.14792  0.84945  1.0000
  H   H837      1.0  0.21920  0.13456  0.85558  1.0000
  H   H838      1.0  0.21389  0.15114  0.82951  1.0000
  O   O420      1.0  0.59585  0.13229  0.87862  1.0000
  H   H839      1.0  0.60383  0.14687  0.88563  1.0000
  H   H840      1.0  0.59945  0.12034  0.89348  1.0000
  O   O421      1.0  0.32308  0.55541  0.15888  1.0000
  H   H841      1.0  0.33730  0.55069  0.17071  1.0000
  H   H842      1.0  0.32837  0.57016  0.14935  1.0000
  O   O422      1.0  0.96899  0.51896  0.38621  1.0000
  H   H843      1.0  0.95436  0.51640  0.37410  1.0000
  H   H844      1.0  0.97305  0.53584  0.38356  1.0000
  O   O423      1.0  0.91600  0.99584  0.05989  1.0000
  H   H845      1.0  0.91202  0.99202  0.08003  1.0000
  H   H846      1.0  0.90081  0.99223  0.04919  1.0000
  O   O424      1.0  0.25683  0.46770  0.60898  1.0000
  H   H847      1.0  0.25284  0.46912  0.62957  1.0000
  H   H848      1.0  0.26883  0.45463  0.60801  1.0000
  O   O425      1.0  0.57577  0.56616  0.36742  1.0000
  H   H849      1.0  0.56659  0.58025  0.37386  1.0000
  H   H850      1.0  0.56829  0.55289  0.37808  1.0000
  O   O426      1.0  0.18271  0.82369  0.12092  1.0000
  H   H851      1.0  0.17329  0.81127  0.13096  1.0000
  H   H852      1.0  0.18893  0.81585  0.10344  1.0000
  O   O427      1.0  0.12555  0.85825  0.02003  1.0000
  H   H853      1.0  0.12610  0.86989  0.00426  1.0000
  H   H854      1.0  0.14030  0.84837  0.01713  1.0000
  O   O428      1.0  0.04184  0.98699  0.37666  1.0000
  H   H855      1.0  0.05071  0.99916  0.36556  1.0000
  H   H856      1.0  0.03272  0.97784  0.36209  1.0000
  O   O429      1.0  0.16371  0.77384  0.37450  1.0000
  H   H857      1.0  0.16626  0.78488  0.35836  1.0000
  H   H858      1.0  0.14801  0.77888  0.38315  1.0000
  O   O430      1.0  0.16184  0.05992  0.83198  1.0000
  H   H859      1.0  0.17322  0.05780  0.81569  1.0000
  H   H860      1.0  0.15929  0.07719  0.83314  1.0000
  O   O431      1.0  0.30881  0.06300  0.95035  1.0000
  H   H861      1.0  0.30591  0.06835  0.93048  1.0000
  H   H862      1.0  0.32165  0.07373  0.95770  1.0000
  O   O432      1.0  0.49435  0.96150  0.21489  1.0000
  H   H863      1.0  0.50782  0.94982  0.21479  1.0000
  H   H864      1.0  0.49222  0.96566  0.23531  1.0000
  O   O433      1.0  0.19192  0.57753  0.37482  1.0000
  H   H865      1.0  0.19228  0.56353  0.38749  1.0000
  H   H866      1.0  0.19574  0.59096  0.38761  1.0000
  O   O434      1.0  0.15555  0.00399  0.28996  1.0000
  H   H867      1.0  0.15153  0.99973  0.30995  1.0000
  H   H868      1.0  0.13982  0.00251  0.27956  1.0000
  O   O435      1.0  0.34173  0.71024  0.21298  1.0000
  H   H869      1.0  0.33456  0.69679  0.20238  1.0000
  H   H870      1.0  0.34213  0.70492  0.23315  1.0000
  O   O436      1.0  0.35160  0.49545  0.33817  1.0000
  H   H871      1.0  0.35483  0.49672  0.35895  1.0000
  H   H872      1.0  0.35586  0.51118  0.33044  1.0000
  O   O437      1.0  0.59712  0.94470  0.62429  1.0000
  H   H873      1.0  0.58474  0.95744  0.62518  1.0000
  H   H874      1.0  0.60745  0.94720  0.64143  1.0000
  O   O438      1.0  0.59473  0.27280  0.27244  1.0000
  H   H875      1.0  0.58257  0.28317  0.26302  1.0000
  H   H876      1.0  0.60026  0.26198  0.25712  1.0000
  O   O439      1.0  0.98591  0.43704  0.70063  1.0000
  H   H877      1.0  0.00154  0.42979  0.70681  1.0000
  H   H878      1.0  0.97517  0.43594  0.71764  1.0000
  O   O440      1.0  0.50972  0.96733  0.15853  1.0000
  H   H879      1.0  0.50556  0.96719  0.13791  1.0000
  H   H880      1.0  0.52651  0.96078  0.15943  1.0000
  O   O441      1.0  0.55786  0.37974  0.17079  1.0000
  H   H881      1.0  0.57341  0.37503  0.16152  1.0000
  H   H882      1.0  0.55613  0.39673  0.16627  1.0000
  O   O442      1.0  0.66177  0.44410  0.71592  1.0000
  H   H883      1.0  0.67311  0.44131  0.73209  1.0000
  H   H884      1.0  0.65669  0.46077  0.71805  1.0000
  O   O443      1.0  0.29773  0.91847  0.47239  1.0000
  H   H885      1.0  0.28726  0.90905  0.48537  1.0000
  H   H886      1.0  0.29620  0.93485  0.47953  1.0000
  O   O444      1.0  0.44328  0.50406  0.30407  1.0000
  H   H887      1.0  0.44797  0.50987  0.28486  1.0000
  H   H888      1.0  0.42643  0.49794  0.30159  1.0000
  O   O445      1.0  0.32341  0.65899  0.47192  1.0000
  H   H889      1.0  0.31611  0.64757  0.45835  1.0000
  H   H890      1.0  0.34056  0.66078  0.46541  1.0000
  O   O446      1.0  0.29432  0.73569  0.23442  1.0000
  H   H891      1.0  0.28603  0.72365  0.22252  1.0000
  H   H892      1.0  0.28599  0.75067  0.22952  1.0000
  O   O447      1.0  0.48260  0.11146  0.91078  1.0000
  H   H893      1.0  0.46644  0.11855  0.90653  1.0000
  H   H894      1.0  0.48341  0.09733  0.89836  1.0000
  O   O448      1.0  0.26736  0.83258  0.40574  1.0000
  H   H895      1.0  0.26045  0.83733  0.42446  1.0000
  H   H896      1.0  0.27514  0.81710  0.40941  1.0000
  O   O449      1.0  0.98179  0.22990  0.76156  1.0000
  H   H897      1.0  0.99803  0.23221  0.77054  1.0000
  H   H898      1.0  0.98550  0.22566  0.74148  1.0000
  O   O450      1.0  0.47548  0.87326  0.23262  1.0000
  H   H899      1.0  0.47933  0.88144  0.25078  1.0000
  H   H900      1.0  0.45788  0.87649  0.22938  1.0000
  O   O451      1.0  0.77350  0.67539  0.81244  1.0000
  H   H901      1.0  0.76794  0.68898  0.80083  1.0000
  H   H902      1.0  0.78742  0.66872  0.80154  1.0000
  O   O452      1.0  0.41935  0.89044  0.26229  1.0000
  H   H903      1.0  0.42606  0.87448  0.26586  1.0000
  H   H904      1.0  0.41297  0.88972  0.24248  1.0000
  O   O453      1.0  0.45474  0.41318  0.70014  1.0000
  H   H905      1.0  0.44335  0.40959  0.68424  1.0000
  H   H906      1.0  0.47041  0.40581  0.69434  1.0000
  O   O454      1.0  0.68045  0.67915  0.85946  1.0000
  H   H907      1.0  0.68759  0.66387  0.85347  1.0000
  H   H908      1.0  0.68909  0.69105  0.84769  1.0000
  O   O455      1.0  0.74532  0.65062  0.54929  1.0000
  H   H909      1.0  0.74024  0.63829  0.53551  1.0000
  H   H910      1.0  0.74068  0.66566  0.54000  1.0000
  O   O456      1.0  0.09529  0.89716  0.35561  1.0000
  H   H911      1.0  0.08672  0.90605  0.37085  1.0000
  H   H912      1.0  0.10943  0.88978  0.36540  1.0000
  O   O457      1.0  0.41490  0.26913  0.68815  1.0000
  H   H913      1.0  0.41035  0.25476  0.69896  1.0000
  H   H914      1.0  0.40548  0.28196  0.69741  1.0000
  O   O458      1.0  0.78550  0.90126  0.20301  1.0000
  H   H915      1.0  0.78791  0.88598  0.19315  1.0000
  H   H916      1.0  0.77316  0.89790  0.21798  1.0000
  O   O459      1.0  0.78684  0.73753  0.49371  1.0000
  H   H917      1.0  0.79907  0.72498  0.49014  1.0000
  H   H918      1.0  0.79189  0.75065  0.48104  1.0000
  O   O460      1.0  0.79694  0.57089  0.09949  1.0000
  H   H919      1.0  0.80376  0.55787  0.11116  1.0000
  H   H920      1.0  0.78060  0.57394  0.10787  1.0000
  O   O461      1.0  0.21047  0.65518  0.87811  1.0000
  H   H921      1.0  0.22291  0.65293  0.86295  1.0000
  H   H922      1.0  0.19692  0.66365  0.86850  1.0000
  O   O462      1.0  0.68064  0.25684  0.65059  1.0000
  H   H923      1.0  0.67492  0.27280  0.65605  1.0000
  H   H924      1.0  0.69484  0.25383  0.66323  1.0000
  O   O463      1.0  0.76098  0.69749  0.72830  1.0000
  H   H925      1.0  0.75390  0.69128  0.74629  1.0000
  H   H926      1.0  0.77132  0.71092  0.73442  1.0000
  O   O464      1.0  0.06460  0.66083  0.73218  1.0000
  H   H927      1.0  0.05048  0.65072  0.72706  1.0000
  H   H928      1.0  0.07094  0.66658  0.71360  1.0000
  O   O465      1.0  0.80406  0.66948  0.75465  1.0000
  H   H929      1.0  0.81293  0.67590  0.73789  1.0000
  H   H930      1.0  0.79736  0.68356  0.76445  1.0000
  O   O466      1.0  0.08332  0.31384  0.85233  1.0000
  H   H931      1.0  0.09910  0.31034  0.86186  1.0000
  H   H932      1.0  0.08582  0.30889  0.83223  1.0000
  O   O467      1.0  0.25837  0.36945  0.48390  1.0000
  H   H933      1.0  0.27173  0.37580  0.47182  1.0000
  H   H934      1.0  0.25501  0.35360  0.47589  1.0000
  O   O468      1.0  0.82761  0.59613  0.56138  1.0000
  H   H935      1.0  0.81407  0.58692  0.55280  1.0000
  H   H936      1.0  0.84265  0.58906  0.55325  1.0000
  O   O469      1.0  0.74278  0.55885  0.69057  1.0000
  H   H937      1.0  0.74473  0.54160  0.69293  1.0000
  H   H938      1.0  0.75866  0.56422  0.68267  1.0000
  O   O470      1.0  0.84930  0.67410  0.05330  1.0000
  H   H939      1.0  0.83149  0.67471  0.05721  1.0000
  H   H940      1.0  0.85303  0.68944  0.04416  1.0000
  O   O471      1.0  0.67049  0.42309  0.47303  1.0000
  H   H941      1.0  0.66546  0.40638  0.47487  1.0000
  H   H942      1.0  0.68294  0.42304  0.45763  1.0000
  O   O472      1.0  0.21159  0.89656  0.94507  1.0000
  H   H943      1.0  0.22613  0.90133  0.93381  1.0000
  H   H944      1.0  0.21010  0.87937  0.94172  1.0000
  O   O473      1.0  0.05183  0.13591  0.54009  1.0000
  H   H945      1.0  0.06349  0.14842  0.54583  1.0000
  H   H946      1.0  0.05818  0.13009  0.52155  1.0000
  O   O474      1.0  0.55929  0.65494  0.19926  1.0000
  H   H947      1.0  0.54723  0.65669  0.18359  1.0000
  H   H948      1.0  0.55462  0.64006  0.20892  1.0000
  O   O475      1.0  0.67166  0.95134  0.21989  1.0000
  H   H949      1.0  0.65361  0.95223  0.21825  1.0000
  H   H950      1.0  0.67650  0.93904  0.20596  1.0000
  O   O476      1.0  0.75494  0.33875  0.09178  1.0000
  H   H951      1.0  0.75225  0.33825  0.11272  1.0000
  H   H952      1.0  0.77165  0.34527  0.08957  1.0000
  O   O477      1.0  0.88482  0.00689  0.35078  1.0000
  H   H953      1.0  0.87099  0.99745  0.35832  1.0000
  H   H954      1.0  0.88732  0.01943  0.36522  1.0000
  O   O478      1.0  0.67929  0.09591  0.51262  1.0000
  H   H955      1.0  0.67842  0.11277  0.50721  1.0000
  H   H956      1.0  0.69116  0.08897  0.49899  1.0000
  O   O479      1.0  0.31538  0.87874  0.02451  1.0000
  H   H957      1.0  0.32205  0.88854  0.00880  1.0000
  H   H958      1.0  0.31634  0.88899  0.04162  1.0000
  O   O480      1.0  0.20539  0.79528  0.49905  1.0000
  H   H959      1.0  0.19424  0.78199  0.49467  1.0000
  H   H960      1.0  0.19822  0.80277  0.51625  1.0000
  O   O481      1.0  0.36460  0.02431  0.93734  1.0000
  H   H961      1.0  0.38034  0.02123  0.94718  1.0000
  H   H962      1.0  0.36899  0.03472  0.92113  1.0000
  O   O482      1.0  0.36732  0.71635  0.83711  1.0000
  H   H963      1.0  0.35112  0.72200  0.84370  1.0000
  H   H964      1.0  0.36674  0.69905  0.83990  1.0000
  O   O483      1.0  0.58833  0.06893  0.10961  1.0000
  H   H965      1.0  0.57525  0.05793  0.10349  1.0000
  H   H966      1.0  0.58480  0.08374  0.09914  1.0000
  O   O484      1.0  0.37170  0.65059  0.10854  1.0000
  H   H967      1.0  0.36924  0.65215  0.12944  1.0000
  H   H968      1.0  0.38939  0.64719  0.10638  1.0000
  O   O485      1.0  0.09768  0.23850  0.73204  1.0000
  H   H969      1.0  0.11148  0.24341  0.74442  1.0000
  H   H970      1.0  0.08286  0.24193  0.74350  1.0000
  O   O486      1.0  0.00166  0.49355  0.64937  1.0000
  H   H971      1.0  0.00142  0.48247  0.63301  1.0000
  H   H972      1.0  0.00508  0.50913  0.64066  1.0000
  O   O487      1.0  0.29503  0.61355  0.73746  1.0000
  H   H973      1.0  0.30705  0.61353  0.75332  1.0000
  H   H974      1.0  0.28095  0.60443  0.74493  1.0000
  O   O488      1.0  0.84368  0.12043  0.67608  1.0000
  H   H975      1.0  0.85729  0.11432  0.66421  1.0000
  H   H976      1.0  0.84014  0.10754  0.68977  1.0000
  O   O489      1.0  0.69736  0.65784  0.17848  1.0000
  H   H977      1.0  0.69445  0.67123  0.16531  1.0000
  H   H978      1.0  0.71255  0.65038  0.17130  1.0000
  O   O490      1.0  0.67734  0.27504  0.94195  1.0000
  H   H979      1.0  0.68570  0.26092  0.94969  1.0000
  H   H980      1.0  0.66131  0.26911  0.93513  1.0000
  O   O491      1.0  0.58546  0.34140  0.20986  1.0000
  H   H981      1.0  0.59793  0.34714  0.19615  1.0000
  H   H982      1.0  0.58294  0.32465  0.20462  1.0000
  O   O492      1.0  0.45545  0.66887  0.30089  1.0000
  H   H983      1.0  0.44028  0.67780  0.29673  1.0000
  H   H984      1.0  0.45480  0.66588  0.32174  1.0000
  O   O493      1.0  0.53505  0.56621  0.48489  1.0000
  H   H985      1.0  0.51806  0.56656  0.49227  1.0000
  H   H986      1.0  0.54237  0.55195  0.49363  1.0000
  O   O494      1.0  0.13273  0.30227  0.23284  1.0000
  H   H987      1.0  0.15014  0.30578  0.23691  1.0000
  H   H988      1.0  0.13191  0.30087  0.21175  1.0000
  O   O495      1.0  0.20060  0.96151  0.16727  1.0000
  H   H989      1.0  0.18993  0.94760  0.16434  1.0000
  H   H990      1.0  0.18910  0.97494  0.16905  1.0000
  O   O496      1.0  0.00564  0.78768  0.64099  1.0000
  H   H991      1.0  0.99286  0.79636  0.63027  1.0000
  H   H992      1.0  0.02099  0.79098  0.63046  1.0000
  O   O497      1.0  0.32811  0.08688  0.89726  1.0000
  H   H993      1.0  0.33847  0.07458  0.90619  1.0000
  H   H994      1.0  0.31722  0.07808  0.88410  1.0000
  O   O498      1.0  0.40914  0.26884  0.76910  1.0000
  H   H995      1.0  0.39865  0.28034  0.75890  1.0000
  H   H996      1.0  0.40641  0.25375  0.75893  1.0000
  O   O499      1.0  0.40680  0.64135  0.91556  1.0000
  H   H997      1.0  0.39271  0.63233  0.90794  1.0000
  H   H998      1.0  0.39973  0.65124  0.93095  1.0000
  O   O500      1.0  0.50559  0.19737  0.80876  1.0000
  H   H999      1.0  0.49644  0.21017  0.81843  1.0000
  H   H1000     1.0  0.49399  0.18395  0.80826  1.0000
  O   O501      1.0  0.15400  0.85159  0.44239  1.0000
  H   H1001     1.0  0.15085  0.86647  0.43193  1.0000
  H   H1002     1.0  0.14558  0.83932  0.43095  1.0000
  O   O502      1.0  0.99453  0.72873  0.87191  1.0000
  H   H1003     1.0  0.00867  0.72496  0.88436  1.0000
  H   H1004     1.0  0.98422  0.73939  0.88359  1.0000
  O   O503      1.0  0.11205  0.15607  0.57990  1.0000
  H   H1005     1.0  0.10519  0.14278  0.56873  1.0000
  H   H1006     1.0  0.12871  0.15835  0.57201  1.0000
  O   O504      1.0  0.42632  0.69319  0.19366  1.0000
  H   H1007     1.0  0.43354  0.68623  0.17616  1.0000
  H   H1008     1.0  0.42829  0.68082  0.20843  1.0000
  O   O505      1.0  0.01737  0.61954  0.41909  1.0000
  H   H1009     1.0  0.01271  0.61394  0.43840  1.0000
  H   H1010     1.0  0.00326  0.62918  0.41273  1.0000
  O   O506      1.0  0.01991  0.95336  0.95963  1.0000
  H   H1011     1.0  0.03692  0.95357  0.95230  1.0000
  H   H1012     1.0  0.01885  0.93865  0.97098  1.0000
  O   O507      1.0  0.04121  0.47823  0.21170  1.0000
  H   H1013     1.0  0.03114  0.46684  0.22262  1.0000
  H   H1014     1.0  0.04502  0.46999  0.19356  1.0000
  O   O508      1.0  0.96161  0.97391  0.08668  1.0000
  H   H1015     1.0  0.97936  0.97050  0.08799  1.0000
  H   H1016     1.0  0.95371  0.96103  0.09762  1.0000
  O   O509      1.0  0.69860  0.53200  0.86159  1.0000
  H   H1017     1.0  0.71018  0.53636  0.84617  1.0000
  H   H1018     1.0  0.68248  0.53106  0.85197  1.0000
  O   O510      1.0  0.38544  0.71738  0.49264  1.0000
  H   H1019     1.0  0.36812  0.71497  0.48710  1.0000
  H   H1020     1.0  0.39090  0.70175  0.49965  1.0000
  O   O511      1.0  0.95554  0.69046  0.61724  1.0000
  H   H1021     1.0  0.94630  0.67546  0.61611  1.0000
  H   H1022     1.0  0.94892  0.69847  0.63440  1.0000
  O   O512      1.0  0.20625  0.52553  0.96337  1.0000
  H   H1023     1.0  0.19661  0.53765  0.95308  1.0000
  H   H1024     1.0  0.20039  0.52646  0.98338  1.0000
  O   O513      1.0  0.09007  0.33079  0.20946  1.0000
  H   H1025     1.0  0.09794  0.32189  0.19372  1.0000
  H   H1026     1.0  0.09187  0.34756  0.20390  1.0000
  O   O514      1.0  0.78991  0.87858  0.00385  1.0000
  H   H1027     1.0  0.77920  0.86630  0.99546  1.0000
  H   H1028     1.0  0.79380  0.88919  0.98764  1.0000
  O   O515      1.0  0.44479  0.19291  0.10193  1.0000
  H   H1029     1.0  0.44482  0.17715  0.11107  1.0000
  H   H1030     1.0  0.46233  0.19667  0.09911  1.0000
  O   O516      1.0  0.47308  0.88634  0.76221  1.0000
  H   H1031     1.0  0.47620  0.88854  0.78291  1.0000
  H   H1032     1.0  0.45501  0.88643  0.76048  1.0000
  O   O517      1.0  0.94817  0.41825  0.57414  1.0000
  H   H1033     1.0  0.96394  0.42626  0.57030  1.0000
  H   H1034     1.0  0.93597  0.43116  0.57469  1.0000
  O   O518      1.0  0.15005  0.33764  0.12194  1.0000
  H   H1035     1.0  0.13950  0.34799  0.13374  1.0000
  H   H1036     1.0  0.16623  0.34552  0.12200  1.0000
  O   O519      1.0  0.07302  0.79389  0.21962  1.0000
  H   H1037     1.0  0.06803  0.78284  0.23496  1.0000
  H   H1038     1.0  0.06359  0.78873  0.20265  1.0000
  O   O520      1.0  0.49842  0.31146  0.99707  1.0000
  H   H1039     1.0  0.48478  0.32069  0.98874  1.0000
  H   H1040     1.0  0.49765  0.29603  0.98717  1.0000
  O   O521      1.0  0.04677  0.99833  0.79302  1.0000
  H   H1041     1.0  0.05428  0.98428  0.78400  1.0000
  H   H1042     1.0  0.05167  0.99732  0.81337  1.0000
  O   O522      1.0  0.97691  0.82468  0.78578  1.0000
  H   H1043     1.0  0.97314  0.84127  0.79073  1.0000
  H   H1044     1.0  0.96573  0.82096  0.76973  1.0000
  O   O523      1.0  0.64514  0.67342  0.19705  1.0000
  H   H1045     1.0  0.64251  0.68775  0.20876  1.0000
  H   H1046     1.0  0.65198  0.67938  0.17882  1.0000
  O   O524      1.0  0.12209  0.92035  0.66400  1.0000
  H   H1047     1.0  0.11378  0.91076  0.64920  1.0000
  H   H1048     1.0  0.13447  0.90961  0.67235  1.0000
  O   O525      1.0  0.84122  0.61055  0.65277  1.0000
  H   H1049     1.0  0.84361  0.62656  0.66078  1.0000
  H   H1050     1.0  0.84781  0.59982  0.66760  1.0000
  O   O526      1.0  0.59776  0.81515  0.18404  1.0000
  H   H1051     1.0  0.60270  0.81980  0.20362  1.0000
  H   H1052     1.0  0.61148  0.80532  0.17699  1.0000
  O   O527      1.0  0.50500  0.04633  0.23060  1.0000
  H   H1053     1.0  0.49737  0.04801  0.24971  1.0000
  H   H1054     1.0  0.51986  0.03674  0.23405  1.0000
  O   O528      1.0  0.90656  0.64525  0.33300  1.0000
  H   H1055     1.0  0.91385  0.65355  0.31642  1.0000
  H   H1056     1.0  0.90400  0.62889  0.32620  1.0000
  O   O529      1.0  0.01842  0.83715  0.44448  1.0000
  H   H1057     1.0  0.01715  0.83846  0.42341  1.0000
  H   H1058     1.0  0.01189  0.85230  0.45174  1.0000
  O   O530      1.0  0.67063  0.03025  0.24244  1.0000
  H   H1059     1.0  0.68472  0.02705  0.25520  1.0000
  H   H1060     1.0  0.67498  0.04513  0.23256  1.0000
  O   O531      1.0  0.54894  0.15546  0.86414  1.0000
  H   H1061     1.0  0.53826  0.16222  0.87916  1.0000
  H   H1062     1.0  0.56574  0.15988  0.87002  1.0000
  O   O532      1.0  0.99268  0.13458  0.06424  1.0000
  H   H1063     1.0  0.99841  0.13301  0.08425  1.0000
  H   H1064     1.0  0.98604  0.15081  0.06309  1.0000
  O   O533      1.0  0.84574  0.62664  0.92854  1.0000
  H   H1065     1.0  0.84887  0.63691  0.94528  1.0000
  H   H1066     1.0  0.85058  0.63633  0.91185  1.0000
  O   O534      1.0  0.85998  0.82671  0.66709  1.0000
  H   H1067     1.0  0.86107  0.83948  0.65270  1.0000
  H   H1068     1.0  0.85242  0.81335  0.65669  1.0000
  O   O535      1.0  0.63615  0.12270  0.35584  1.0000
  H   H1069     1.0  0.63536  0.12316  0.33468  1.0000
  H   H1070     1.0  0.62636  0.13647  0.36209  1.0000
  O   O536      1.0  0.15597  0.72341  0.81112  1.0000
  H   H1071     1.0  0.14321  0.72682  0.82559  1.0000
  H   H1072     1.0  0.15696  0.73797  0.79949  1.0000
  O   O537      1.0  0.09653  0.66547  0.05505  1.0000
  H   H1073     1.0  0.09533  0.66030  0.07523  1.0000
  H   H1074     1.0  0.08625  0.65410  0.04436  1.0000
  O   O538      1.0  0.85360  0.22439  0.62491  1.0000
  H   H1075     1.0  0.85388  0.21389  0.60799  1.0000
  H   H1076     1.0  0.84083  0.23624  0.62045  1.0000
  O   O539      1.0  0.62484  0.13272  0.04509  1.0000
  H   H1077     1.0  0.62786  0.13261  0.06598  1.0000
  H   H1078     1.0  0.64132  0.13419  0.03647  1.0000
  O   O540      1.0  0.44418  0.67985  0.45373  1.0000
  H   H1079     1.0  0.45855  0.67496  0.44226  1.0000
  H   H1080     1.0  0.44135  0.69650  0.44825  1.0000
  O   O541      1.0  0.18269  0.26667  0.26461  1.0000
  H   H1081     1.0  0.17586  0.27951  0.25268  1.0000
  H   H1082     1.0  0.17409  0.26819  0.28317  1.0000
  O   O542      1.0  0.52079  0.92581  0.61556  1.0000
  H   H1083     1.0  0.53567  0.93444  0.62164  1.0000
  H   H1084     1.0  0.52507  0.90895  0.61795  1.0000
  O   O543      1.0  0.71950  0.27823  0.72286  1.0000
  H   H1085     1.0  0.70183  0.28020  0.72697  1.0000
  H   H1086     1.0  0.72780  0.28863  0.73684  1.0000
  O   O544      1.0  0.82851  0.36260  0.00384  1.0000
  H   H1087     1.0  0.83929  0.36044  0.98701  1.0000
  H   H1088     1.0  0.81273  0.36797  0.99570  1.0000
  O   O545      1.0  0.11551  0.54679  0.90079  1.0000
  H   H1089     1.0  0.10920  0.55567  0.88412  1.0000
  H   H1090     1.0  0.10077  0.54309  0.91227  1.0000
  O   O546      1.0  0.26308  0.22101  0.05772  1.0000
  H   H1091     1.0  0.26000  0.20497  0.06530  1.0000
  H   H1092     1.0  0.24753  0.22553  0.04832  1.0000
  O   O547      1.0  0.49088  0.66897  0.43309  1.0000
  H   H1093     1.0  0.49875  0.67858  0.44820  1.0000
  H   H1094     1.0  0.49897  0.67404  0.41515  1.0000
  O   O548      1.0  0.24315  0.10465  0.79641  1.0000
  H   H1095     1.0  0.22753  0.10615  0.80700  1.0000
  H   H1096     1.0  0.25461  0.09750  0.81035  1.0000
  O   O549      1.0  0.69171  0.58804  0.07737  1.0000
  H   H1097     1.0  0.67466  0.58799  0.08457  1.0000
  H   H1098     1.0  0.69080  0.57977  0.05874  1.0000
  O   O550      1.0  0.31505  0.86936  0.49594  1.0000
  H   H1099     1.0  0.29788  0.86811  0.50254  1.0000
  H   H1100     1.0  0.32497  0.86518  0.51293  1.0000
  O   O551      1.0  0.42640  0.95866  0.41377  1.0000
  H   H1101     1.0  0.42444  0.97131  0.39933  1.0000
  H   H1102     1.0  0.42476  0.94382  0.40276  1.0000
  O   O552      1.0  0.88857  0.70200  0.47781  1.0000
  H   H1103     1.0  0.87998  0.69812  0.45976  1.0000
  H   H1104     1.0  0.89214  0.68650  0.48662  1.0000
  O   O553      1.0  0.00960  0.56614  0.34911  1.0000
  H   H1105     1.0  0.99208  0.57032  0.35121  1.0000
  H   H1106     1.0  0.01282  0.56752  0.32833  1.0000
  O   O554      1.0  0.77760  0.18795  0.93940  1.0000
  H   H1107     1.0  0.76187  0.19661  0.94021  1.0000
  H   H1108     1.0  0.78965  0.19886  0.94809  1.0000
  O   O555      1.0  0.18227  0.26124  0.13432  1.0000
  H   H1109     1.0  0.19061  0.25515  0.15162  1.0000
  H   H1110     1.0  0.16613  0.25328  0.13432  1.0000
  O   O556      1.0  0.57191  0.03340  0.99850  1.0000
  H   H1111     1.0  0.58875  0.03864  0.99389  1.0000
  H   H1112     1.0  0.57327  0.02629  0.01779  1.0000
  O   O557      1.0  0.95582  0.33272  0.89067  1.0000
  H   H1113     1.0  0.96276  0.31809  0.89892  1.0000
  H   H1114     1.0  0.97007  0.34335  0.88838  1.0000
  O   O558      1.0  0.60930  0.52235  0.58326  1.0000
  H   H1115     1.0  0.60050  0.53758  0.58188  1.0000
  H   H1116     1.0  0.59974  0.51144  0.57105  1.0000
  O   O559      1.0  0.05709  0.64880  0.38717  1.0000
  H   H1117     1.0  0.05488  0.66589  0.39069  1.0000
  H   H1118     1.0  0.04562  0.64105  0.40062  1.0000
  O   O560      1.0  0.97905  0.61704  0.13751  1.0000
  H   H1119     1.0  0.97589  0.61032  0.15670  1.0000
  H   H1120     1.0  0.96322  0.62408  0.13171  1.0000
  O   O561      1.0  0.80559  0.02717  0.18568  1.0000
  H   H1121     1.0  0.79632  0.02918  0.16764  1.0000
  H   H1122     1.0  0.82231  0.02275  0.17947  1.0000
  O   O562      1.0  0.15122  0.86700  0.12087  1.0000
  H   H1123     1.0  0.14499  0.86388  0.14039  1.0000
  H   H1124     1.0  0.14122  0.85673  0.10834  1.0000
  O   O563      1.0  0.94774  0.41675  0.45072  1.0000
  H   H1125     1.0  0.93759  0.40592  0.43908  1.0000
  H   H1126     1.0  0.96262  0.41941  0.43905  1.0000
  O   O564      1.0  0.71391  0.08140  0.64576  1.0000
  H   H1127     1.0  0.70368  0.07024  0.63469  1.0000
  H   H1128     1.0  0.70536  0.09673  0.64399  1.0000
  O   O565      1.0  0.82626  0.30168  0.99879  1.0000
  H   H1129     1.0  0.80941  0.30061  0.99108  1.0000
  H   H1130     1.0  0.83484  0.31255  0.98559  1.0000
  O   O566      1.0  0.56859  0.40954  0.22180  1.0000
  H   H1131     1.0  0.56486  0.41354  0.24195  1.0000
  H   H1132     1.0  0.55538  0.41721  0.21065  1.0000
  O   O567      1.0  0.48133  0.10720  0.25941  1.0000
  H   H1133     1.0  0.47321  0.09403  0.26958  1.0000
  H   H1134     1.0  0.49900  0.10496  0.26332  1.0000
  O   O568      1.0  0.50943  0.27170  0.83523  1.0000
  H   H1135     1.0  0.52092  0.26066  0.82577  1.0000
  H   H1136     1.0  0.49314  0.26734  0.82758  1.0000
  O   O569      1.0  0.72407  0.82447  0.24020  1.0000
  H   H1137     1.0  0.71106  0.81297  0.23541  1.0000
  H   H1138     1.0  0.73902  0.81477  0.24252  1.0000
  O   O570      1.0  0.33901  0.16685  0.22472  1.0000
  H   H1139     1.0  0.32484  0.16636  0.23791  1.0000
  H   H1140     1.0  0.33176  0.17022  0.20575  1.0000
  O   O571      1.0  0.96118  0.97947  0.36876  1.0000
  H   H1141     1.0  0.96874  0.97018  0.35314  1.0000
  H   H1142     1.0  0.96354  0.96968  0.38608  1.0000
  O   O572      1.0  0.32570  0.13934  0.34426  1.0000
  H   H1143     1.0  0.32136  0.13770  0.36473  1.0000
  H   H1144     1.0  0.33775  0.12661  0.34075  1.0000
  O   O573      1.0  0.23663  0.74873  0.38944  1.0000
  H   H1145     1.0  0.24823  0.75361  0.40460  1.0000
  H   H1146     1.0  0.24139  0.75823  0.37256  1.0000
  O   O574      1.0  0.87525  0.79994  0.60995  1.0000
  H   H1147     1.0  0.88662  0.81203  0.61752  1.0000
  H   H1148     1.0  0.85911  0.80789  0.60951  1.0000
  O   O575      1.0  0.16200  0.75797  0.18784  1.0000
  H   H1149     1.0  0.17391  0.75469  0.17239  1.0000
  H   H1150     1.0  0.15752  0.74220  0.19533  1.0000
  O   O576      1.0  0.48990  0.14951  0.32416  1.0000
  H   H1151     1.0  0.48926  0.16237  0.33846  1.0000
  H   H1152     1.0  0.50486  0.15279  0.31286  1.0000
  O   O577      1.0  0.65250  0.98032  0.12351  1.0000
  H   H1153     1.0  0.66499  0.99199  0.11755  1.0000
  H   H1154     1.0  0.65102  0.98251  0.14445  1.0000
  O   O578      1.0  0.05260  0.59526  0.48048  1.0000
  H   H1155     1.0  0.06842  0.59408  0.49073  1.0000
  H   H1156     1.0  0.04147  0.60306  0.49427  1.0000
  O   O579      1.0  0.34197  0.36408  0.12723  1.0000
  H   H1157     1.0  0.35870  0.35836  0.13154  1.0000
  H   H1158     1.0  0.33351  0.36408  0.14595  1.0000
  O   O580      1.0  0.00701  0.77168  0.25480  1.0000
  H   H1159     1.0  0.00555  0.75656  0.26527  1.0000
  H   H1160     1.0  0.02487  0.77453  0.25352  1.0000
  O   O581      1.0  0.10484  0.76465  0.34233  1.0000
  H   H1161     1.0  0.11173  0.76937  0.36106  1.0000
  H   H1162     1.0  0.10354  0.77958  0.33144  1.0000
  O   O582      1.0  0.51958  0.07474  0.55721  1.0000
  H   H1163     1.0  0.52945  0.08250  0.57229  1.0000
  H   H1164     1.0  0.50804  0.08709  0.55071  1.0000
  O   O583      1.0  0.34462  0.64472  0.22518  1.0000
  H   H1165     1.0  0.36017  0.65341  0.22241  1.0000
  H   H1166     1.0  0.33211  0.65463  0.21567  1.0000
  O   O584      1.0  0.87914  0.74377  0.27437  1.0000
  H   H1167     1.0  0.86599  0.74205  0.28881  1.0000
  H   H1168     1.0  0.88645  0.75940  0.27841  1.0000
  O   O585      1.0  0.18672  0.19110  0.36752  1.0000
  H   H1169     1.0  0.18520  0.17496  0.35959  1.0000
  H   H1170     1.0  0.17090  0.19875  0.36293  1.0000
  O   O586      1.0  0.86506  0.53641  0.67112  1.0000
  H   H1171     1.0  0.87578  0.55001  0.66666  1.0000
  H   H1172     1.0  0.86673  0.53423  0.69205  1.0000
  O   O587      1.0  0.06892  0.86136  0.01172  1.0000
  H   H1173     1.0  0.05558  0.87318  0.01124  1.0000
  H   H1174     1.0  0.07445  0.86013  0.99160  1.0000
  O   O588      1.0  0.64015  0.37677  0.22879  1.0000
  H   H1175     1.0  0.63833  0.35987  0.23373  1.0000
  H   H1176     1.0  0.65111  0.37685  0.21192  1.0000
  O   O589      1.0  0.76213  0.68509  0.02524  1.0000
  H   H1177     1.0  0.77948  0.68981  0.02743  1.0000
  H   H1178     1.0  0.76178  0.67569  0.00740  1.0000
  O   O590      1.0  0.58269  0.90640  0.15249  1.0000
  H   H1179     1.0  0.58867  0.90136  0.13345  1.0000
  H   H1180     1.0  0.57267  0.92060  0.14858  1.0000
  O   O591      1.0  0.21776  0.01378  0.32688  1.0000
  H   H1181     1.0  0.21401  0.99844  0.33601  1.0000
  H   H1182     1.0  0.23166  0.01037  0.31394  1.0000
  O   O592      1.0  0.22223  0.75228  0.86219  1.0000
  H   H1183     1.0  0.23079  0.74883  0.88038  1.0000
  H   H1184     1.0  0.23535  0.75756  0.84906  1.0000
  O   O593      1.0  0.11940  0.03515  0.08658  1.0000
  H   H1185     1.0  0.10740  0.04362  0.07447  1.0000
  H   H1186     1.0  0.13505  0.03641  0.07600  1.0000
  O   O594      1.0  0.92554  0.17509  0.88195  1.0000
  H   H1187     1.0  0.92429  0.16854  0.90153  1.0000
  H   H1188     1.0  0.93599  0.18926  0.88409  1.0000
  O   O595      1.0  0.61537  0.64725  0.59534  1.0000
  H   H1189     1.0  0.60671  0.65879  0.58307  1.0000
  H   H1190     1.0  0.60362  0.64368  0.61087  1.0000
  O   O596      1.0  0.05976  0.04053  0.77050  1.0000
  H   H1191     1.0  0.05789  0.04848  0.75177  1.0000
  H   H1192     1.0  0.07140  0.02750  0.76679  1.0000
  O   O597      1.0  0.87059  0.88964  0.86933  1.0000
  H   H1193     1.0  0.85853  0.88278  0.88278  1.0000
  H   H1194     1.0  0.87240  0.87758  0.85415  1.0000
  O   O598      1.0  0.08698  0.52704  0.34365  1.0000
  H   H1195     1.0  0.09749  0.52106  0.32799  1.0000
  H   H1196     1.0  0.07740  0.51312  0.34987  1.0000
  O   O599      1.0  0.82763  0.92353  0.70447  1.0000
  H   H1197     1.0  0.82687  0.94005  0.69765  1.0000
  H   H1198     1.0  0.81039  0.91810  0.70425  1.0000
  O   O600      1.0  0.57868  0.07801  0.53386  1.0000
  H   H1199     1.0  0.59478  0.07154  0.52809  1.0000
  H   H1200     1.0  0.57666  0.07294  0.55399  1.0000
  O   O601      1.0  0.07831  0.04069  0.13544  1.0000
  H   H1201     1.0  0.06257  0.03763  0.12560  1.0000
  H   H1202     1.0  0.07357  0.04770  0.15403  1.0000
  O   O602      1.0  0.84430  0.68278  0.50465  1.0000
  H   H1203     1.0  0.84800  0.67373  0.48706  1.0000
  H   H1204     1.0  0.82739  0.67807  0.50975  1.0000
  O   O603      1.0  0.57089  0.98473  0.33331  1.0000
  H   H1205     1.0  0.57385  0.96793  0.32864  1.0000
  H   H1206     1.0  0.58591  0.98982  0.34343  1.0000
  O   O604      1.0  0.11469  0.08141  0.68921  1.0000
  H   H1207     1.0  0.13209  0.08585  0.68671  1.0000
  H   H1208     1.0  0.10833  0.09277  0.70348  1.0000
  O   O605      1.0  0.44687  0.16751  0.93830  1.0000
  H   H1209     1.0  0.44578  0.18453  0.94293  1.0000
  H   H1210     1.0  0.43554  0.16537  0.92197  1.0000
  O   O606      1.0  0.23604  0.70365  0.34976  1.0000
  H   H1211     1.0  0.25020  0.69719  0.33910  1.0000
  H   H1212     1.0  0.24210  0.71869  0.35788  1.0000
  O   O607      1.0  0.53342  0.78270  0.73281  1.0000
  H   H1213     1.0  0.54168  0.76963  0.72259  1.0000
  H   H1214     1.0  0.51925  0.77516  0.74236  1.0000
  O   O608      1.0  0.75226  0.21098  0.47595  1.0000
  H   H1215     1.0  0.76766  0.20177  0.47523  1.0000
  H   H1216     1.0  0.74933  0.21365  0.49660  1.0000
  O   O609      1.0  0.97982  0.30993  0.12159  1.0000
  H   H1217     1.0  0.98673  0.29574  0.13093  1.0000
  H   H1218     1.0  0.99152  0.32270  0.12628  1.0000
  O   O610      1.0  0.90334  0.38398  0.43768  1.0000
  H   H1219     1.0  0.90028  0.40015  0.44487  1.0000
  H   H1220     1.0  0.90810  0.37489  0.45489  1.0000
  O   O611      1.0  0.15240  0.87997  0.27532  1.0000
  H   H1221     1.0  0.16855  0.87244  0.27834  1.0000
  H   H1222     1.0  0.15267  0.88517  0.25511  1.0000
  O   O612      1.0  0.44416  0.01333  0.97662  1.0000
  H   H1223     1.0  0.43275  0.00901  0.99221  1.0000
  H   H1224     1.0  0.43985  0.02983  0.97182  1.0000
  O   O613      1.0  0.03990  0.65233  0.87646  1.0000
  H   H1225     1.0  0.04446  0.66872  0.88149  1.0000
  H   H1226     1.0  0.03331  0.65347  0.85678  1.0000
  O   O614      1.0  0.59514  0.46588  0.41163  1.0000
  H   H1227     1.0  0.60814  0.46038  0.42481  1.0000
  H   H1228     1.0  0.58696  0.45123  0.40514  1.0000
  O   O615      1.0  0.39787  0.87418  0.64657  1.0000
  H   H1229     1.0  0.39698  0.85930  0.65760  1.0000
  H   H1230     1.0  0.38113  0.87637  0.63888  1.0000
  O   O616      1.0  0.28016  0.58244  0.86556  1.0000
  H   H1231     1.0  0.29081  0.58257  0.84843  1.0000
  H   H1232     1.0  0.29139  0.58573  0.88170  1.0000
  O   O617      1.0  0.24177  0.64026  0.26263  1.0000
  H   H1233     1.0  0.22690  0.64862  0.26929  1.0000
  H   H1234     1.0  0.24675  0.64882  0.24512  1.0000
  O   O618      1.0  0.90459  0.76291  0.62653  1.0000
  H   H1235     1.0  0.91119  0.77217  0.64276  1.0000
  H   H1236     1.0  0.90129  0.74711  0.63468  1.0000
  O   O619      1.0  0.37066  0.41698  0.66355  1.0000
  H   H1237     1.0  0.36468  0.43135  0.67334  1.0000
  H   H1238     1.0  0.38427  0.42258  0.65131  1.0000
  O   O620      1.0  0.98392  0.01723  0.99627  1.0000
  H   H1239     1.0  0.99167  0.02502  0.97961  1.0000
  H   H1240     1.0  0.98735  0.02791  0.01254  1.0000
  O   O621      1.0  0.50070  0.51816  0.55341  1.0000
  H   H1241     1.0  0.48569  0.52072  0.56488  1.0000
  H   H1242     1.0  0.49924  0.52941  0.53730  1.0000
  O   O622      1.0  0.74040  0.29463  0.95813  1.0000
  H   H1243     1.0  0.74088  0.30442  0.97566  1.0000
  H   H1244     1.0  0.75258  0.30198  0.94522  1.0000
  O   O623      1.0  0.81156  0.72152  0.00683  1.0000
  H   H1245     1.0  0.80805  0.70777  0.99441  1.0000
  H   H1246     1.0  0.81746  0.71453  0.02498  1.0000
  O   O624      1.0  0.61446  0.81122  0.40253  1.0000
  H   H1247     1.0  0.62042  0.79571  0.40935  1.0000
  H   H1248     1.0  0.61781  0.81112  0.38171  1.0000
  O   O625      1.0  0.75063  0.31211  0.47939  1.0000
  H   H1249     1.0  0.74166  0.31589  0.49721  1.0000
  H   H1250     1.0  0.76765  0.30909  0.48571  1.0000
  O   O626      1.0  0.82912  0.83004  0.90322  1.0000
  H   H1251     1.0  0.82072  0.84178  0.91547  1.0000
  H   H1252     1.0  0.84440  0.83800  0.89714  1.0000
  O   O627      1.0  0.04628  0.79905  0.87880  1.0000
  H   H1253     1.0  0.04196  0.80101  0.89924  1.0000
  H   H1254     1.0  0.05528  0.81365  0.87384  1.0000
  O   O628      1.0  0.94425  0.76661  0.84447  1.0000
  H   H1255     1.0  0.93579  0.77831  0.85672  1.0000
  H   H1256     1.0  0.96185  0.76880  0.84880  1.0000
  O   O629      1.0  0.08164  0.37850  0.02786  1.0000
  H   H1257     1.0  0.09787  0.37401  0.03557  1.0000
  H   H1258     1.0  0.07602  0.39144  0.04048  1.0000
  O   O630      1.0  0.88109  0.66442  0.15241  1.0000
  H   H1259     1.0  0.86784  0.67196  0.16362  1.0000
  H   H1260     1.0  0.89625  0.67228  0.15905  1.0000
  O   O631      1.0  0.69038  0.32417  0.15676  1.0000
  H   H1261     1.0  0.67645  0.32672  0.16996  1.0000
  H   H1262     1.0  0.70494  0.32926  0.16777  1.0000
  O   O632      1.0  0.50493  0.48862  0.75594  1.0000
  H   H1263     1.0  0.49820  0.49267  0.77498  1.0000
  H   H1264     1.0  0.51234  0.50349  0.74896  1.0000
  O   O633      1.0  0.49122  0.86514  0.07617  1.0000
  H   H1265     1.0  0.47397  0.86003  0.07827  1.0000
  H   H1266     1.0  0.49091  0.87659  0.06018  1.0000
  O   O634      1.0  0.69376  0.11290  0.40124  1.0000
  H   H1267     1.0  0.70209  0.12382  0.41461  1.0000
  H   H1268     1.0  0.70285  0.09787  0.40315  1.0000
  O   O635      1.0  0.58572  0.77320  0.05432  1.0000
  H   H1269     1.0  0.59432  0.76236  0.06753  1.0000
  H   H1270     1.0  0.58051  0.76306  0.03820  1.0000
  O   O636      1.0  0.91156  0.31602  0.50083  1.0000
  H   H1271     1.0  0.91587  0.30259  0.51342  1.0000
  H   H1272     1.0  0.89992  0.32553  0.51226  1.0000
  O   O637      1.0  0.48511  0.20542  0.05305  1.0000
  H   H1273     1.0  0.48185  0.18930  0.06025  1.0000
  H   H1274     1.0  0.46971  0.21416  0.05667  1.0000
  O   O638      1.0  0.31483  0.02725  0.15255  1.0000
  H   H1275     1.0  0.32380  0.02552  0.17084  1.0000
  H   H1276     1.0  0.30453  0.01290  0.15130  1.0000
  O   O639      1.0  0.77492  0.88667  0.37900  1.0000
  H   H1277     1.0  0.75787  0.89193  0.37566  1.0000
  H   H1278     1.0  0.77570  0.88345  0.39980  1.0000
  O   O640      1.0  0.35641  0.48612  0.45100  1.0000
  H   H1279     1.0  0.34108  0.48419  0.43994  1.0000
  H   H1280     1.0  0.36938  0.48745  0.43629  1.0000
  O   O641      1.0  0.17400  0.10776  0.24289  1.0000
  H   H1281     1.0  0.19071  0.10146  0.23980  1.0000
  H   H1282     1.0  0.16903  0.11400  0.22399  1.0000
  O   O642      1.0  0.83080  0.59159  0.45787  1.0000
  H   H1283     1.0  0.81330  0.58773  0.45498  1.0000
  H   H1284     1.0  0.83482  0.58483  0.47683  1.0000
  O   O643      1.0  0.63560  0.74169  0.22686  1.0000
  H   H1285     1.0  0.64725  0.72845  0.22922  1.0000
  H   H1286     1.0  0.62448  0.74040  0.24352  1.0000
  O   O644      1.0  0.13571  0.38032  0.99576  1.0000
  H   H1287     1.0  0.13170  0.36682  0.00835  1.0000
  H   H1288     1.0  0.13150  0.37479  0.97628  1.0000
  O   O645      1.0  0.86423  0.92795  0.54726  1.0000
  H   H1289     1.0  0.85737  0.91574  0.53439  1.0000
  H   H1290     1.0  0.85553  0.94262  0.54187  1.0000
  O   O646      1.0  0.99561  0.23970  0.25407  1.0000
  H   H1291     1.0  0.99792  0.24624  0.23462  1.0000
  H   H1292     1.0  0.00613  0.22549  0.25454  1.0000
  O   O647      1.0  0.59590  0.44576  0.33461  1.0000
  H   H1293     1.0  0.60240  0.43201  0.34526  1.0000
  H   H1294     1.0  0.57814  0.44577  0.33885  1.0000
  O   O648      1.0  0.16750  0.06029  0.99855  1.0000
  H   H1295     1.0  0.15073  0.06138  0.00650  1.0000
  H   H1296     1.0  0.17757  0.07026  0.01135  1.0000
  O   O649      1.0  0.91586  0.45353  0.89863  1.0000
  H   H1297     1.0  0.93397  0.45410  0.89804  1.0000
  H   H1298     1.0  0.91165  0.45761  0.91863  1.0000
  O   O650      1.0  0.68825  0.49335  0.20454  1.0000
  H   H1299     1.0  0.70079  0.50564  0.20109  1.0000
  H   H1300     1.0  0.69306  0.48609  0.22297  1.0000
  O   O651      1.0  0.67650  0.61248  0.18803  1.0000
  H   H1301     1.0  0.66669  0.61498  0.17049  1.0000
  H   H1302     1.0  0.67344  0.59582  0.19329  1.0000
  O   O652      1.0  0.61961  0.06422  0.39495  1.0000
  H   H1303     1.0  0.62183  0.06082  0.37434  1.0000
  H   H1304     1.0  0.63048  0.05282  0.40477  1.0000
  O   O653      1.0  0.75587  0.26887  0.35502  1.0000
  H   H1305     1.0  0.76833  0.27375  0.36923  1.0000
  H   H1306     1.0  0.75741  0.28055  0.33937  1.0000
  O   O654      1.0  0.85588  0.07886  0.27328  1.0000
  H   H1307     1.0  0.86123  0.07499  0.29296  1.0000
  H   H1308     1.0  0.83857  0.08378  0.27541  1.0000
  O   O655      1.0  0.56905  0.64386  0.26333  1.0000
  H   H1309     1.0  0.56952  0.66081  0.25825  1.0000
  H   H1310     1.0  0.56102  0.64342  0.28231  1.0000
  O   O656      1.0  0.23936  0.25960  0.43485  1.0000
  H   H1311     1.0  0.24941  0.24601  0.42861  1.0000
  H   H1312     1.0  0.22849  0.25309  0.44985  1.0000
  O   O657      1.0  0.84354  0.14355  0.04541  1.0000
  H   H1313     1.0  0.83468  0.15675  0.03618  1.0000
  H   H1314     1.0  0.84557  0.14860  0.06555  1.0000
  O   O658      1.0  0.25474  0.08968  0.07513  1.0000
  H   H1315     1.0  0.26983  0.09932  0.07628  1.0000
  H   H1316     1.0  0.25165  0.08463  0.09508  1.0000
  O   O659      1.0  0.49843  0.20860  0.40273  1.0000
  H   H1317     1.0  0.50896  0.22154  0.39558  1.0000
  H   H1318     1.0  0.50906  0.19446  0.40223  1.0000
  O   O660      1.0  0.87239  0.51401  0.81313  1.0000
  H   H1319     1.0  0.86445  0.50417  0.82797  1.0000
  H   H1320     1.0  0.87746  0.50265  0.79818  1.0000
  O   O661      1.0  0.42956  0.60946  0.07086  1.0000
  H   H1321     1.0  0.43936  0.59656  0.06234  1.0000
  H   H1322     1.0  0.41326  0.60235  0.07431  1.0000
  O   O662      1.0  0.31916  0.78091  0.79095  1.0000
  H   H1323     1.0  0.30665  0.79292  0.79571  1.0000
  H   H1324     1.0  0.30964  0.76640  0.78701  1.0000
  O   O663      1.0  0.26761  0.80670  0.89452  1.0000
  H   H1325     1.0  0.27601  0.81934  0.90536  1.0000
  H   H1326     1.0  0.25751  0.79843  0.90898  1.0000
  O   O664      1.0  0.68751  0.35407  0.98228  1.0000
  H   H1327     1.0  0.67878  0.35328  0.00082  1.0000
  H   H1328     1.0  0.68954  0.33738  0.97647  1.0000
  O   O665      1.0  0.75570  0.23177  0.69611  1.0000
  H   H1329     1.0  0.76669  0.24565  0.69523  1.0000
  H   H1330     1.0  0.74192  0.23583  0.68326  1.0000
  O   O666      1.0  0.22023  0.30221  0.27240  1.0000
  H   H1331     1.0  0.23131  0.31473  0.27952  1.0000
  H   H1332     1.0  0.20463  0.31048  0.26838  1.0000
  O   O667      1.0  0.95383  0.89164  0.47053  1.0000
  H   H1333     1.0  0.96971  0.89484  0.47998  1.0000
  H   H1334     1.0  0.95248  0.87422  0.47039  1.0000
  O   O668      1.0  0.00742  0.77590  0.91868  1.0000
  H   H1335     1.0  0.02034  0.77525  0.93352  1.0000
  H   H1336     1.0  0.00680  0.75970  0.91080  1.0000
  O   O669      1.0  0.12837  0.32040  0.66684  1.0000
  H   H1337     1.0  0.11401  0.31445  0.67758  1.0000
  H   H1338     1.0  0.13140  0.30826  0.65203  1.0000
  O   O670      1.0  0.00350  0.13402  0.35560  1.0000
  H   H1339     1.0  0.01863  0.13023  0.34488  1.0000
  H   H1340     1.0  0.00079  0.12013  0.36806  1.0000
  O   O671      1.0  0.33861  0.15630  0.65622  1.0000
  H   H1341     1.0  0.33330  0.16892  0.64296  1.0000
  H   H1342     1.0  0.33450  0.16240  0.67548  1.0000
  O   O672      1.0  0.03379  0.00110  0.72842  1.0000
  H   H1343     1.0  0.03872  0.98465  0.72423  1.0000
  H   H1344     1.0  0.02667  0.00691  0.71027  1.0000
  O   O673      1.0  0.83978  0.63072  0.73868  1.0000
  H   H1345     1.0  0.84820  0.64614  0.74024  1.0000
  H   H1346     1.0  0.83985  0.62715  0.71795  1.0000
  O   O674      1.0  0.12256  0.72844  0.62979  1.0000
  H   H1347     1.0  0.13120  0.71526  0.63936  1.0000
  H   H1348     1.0  0.13112  0.73029  0.61125  1.0000
  O   O675      1.0  0.99225  0.81415  0.95990  1.0000
  H   H1349     1.0  0.99064  0.82627  0.97504  1.0000
  H   H1350     1.0  0.00764  0.81826  0.94986  1.0000
  O   O676      1.0  0.30759  0.09488  0.31652  1.0000
  H   H1351     1.0  0.29812  0.09373  0.33452  1.0000
  H   H1352     1.0  0.32477  0.09696  0.32281  1.0000
  O   O677      1.0  0.58681  0.38062  0.63032  1.0000
  H   H1353     1.0  0.57618  0.36678  0.63393  1.0000
  H   H1354     1.0  0.60283  0.37620  0.63866  1.0000
  O   O678      1.0  0.76365  0.72688  0.23530  1.0000
  H   H1355     1.0  0.77699  0.71557  0.23108  1.0000
  H   H1356     1.0  0.76916  0.73524  0.25275  1.0000
  O   O679      1.0  0.56478  0.56627  0.06298  1.0000
  H   H1357     1.0  0.56685  0.58290  0.05699  1.0000
  H   H1358     1.0  0.55606  0.56721  0.08151  1.0000
  O   O680      1.0  0.81581  0.95103  0.75500  1.0000
  H   H1359     1.0  0.80768  0.94566  0.73723  1.0000
  H   H1360     1.0  0.80691  0.94283  0.77054  1.0000
  O   O681      1.0  0.03580  0.44882  0.02558  1.0000
  H   H1361     1.0  0.02039  0.45772  0.02270  1.0000
  H   H1362     1.0  0.04020  0.45176  0.04581  1.0000
  O   O682      1.0  0.51599  0.66782  0.22752  1.0000
  H   H1363     1.0  0.52233  0.65305  0.21898  1.0000
  H   H1364     1.0  0.49963  0.66992  0.21875  1.0000
  O   O683      1.0  0.09976  0.17152  0.46126  1.0000
  H   H1365     1.0  0.08697  0.16893  0.44659  1.0000
  H   H1366     1.0  0.09197  0.16669  0.47946  1.0000
  O   O684      1.0  0.94731  0.57990  0.15208  1.0000
  H   H1367     1.0  0.93031  0.58568  0.15434  1.0000
  H   H1368     1.0  0.94954  0.56853  0.16795  1.0000
  O   O685      1.0  0.03163  0.80709  0.07279  1.0000
  H   H1369     1.0  0.04305  0.80883  0.08911  1.0000
  H   H1370     1.0  0.01527  0.81038  0.08100  1.0000
  O   O686      1.0  0.88806  0.93760  0.85528  1.0000
  H   H1371     1.0  0.90528  0.94065  0.84977  1.0000
  H   H1372     1.0  0.88314  0.95177  0.86625  1.0000
  O   O687      1.0  0.73223  0.56784  0.51637  1.0000
  H   H1373     1.0  0.74306  0.57024  0.49964  1.0000
  H   H1374     1.0  0.74236  0.55886  0.53015  1.0000
  O   O688      1.0  0.76363  0.94519  0.18163  1.0000
  H   H1375     1.0  0.76289  0.94438  0.20277  1.0000
  H   H1376     1.0  0.77183  0.96041  0.17756  1.0000
  O   O689      1.0  0.72400  0.78732  0.42526  1.0000
  H   H1377     1.0  0.72675  0.79857  0.44114  1.0000
  H   H1378     1.0  0.72800  0.79640  0.40778  1.0000
  O   O690      1.0  0.94514  0.20393  0.73533  1.0000
  H   H1379     1.0  0.95517  0.19139  0.72638  1.0000
  H   H1380     1.0  0.94656  0.21751  0.72211  1.0000
  O   O691      1.0  0.76546  0.97152  0.11446  1.0000
  H   H1381     1.0  0.76909  0.98759  0.10732  1.0000
  H   H1382     1.0  0.77628  0.96956  0.13128  1.0000
  O   O692      1.0  0.15333  0.50630  0.31296  1.0000
  H   H1383     1.0  0.14361  0.52090  0.31047  1.0000
  H   H1384     1.0  0.14739  0.49950  0.33119  1.0000
  O   O693      1.0  0.85561  0.67650  0.76844  1.0000
  H   H1385     1.0  0.85075  0.68937  0.75531  1.0000
  H   H1386     1.0  0.84007  0.66839  0.77318  1.0000
  O   O694      1.0  0.39086  0.45050  0.26960  1.0000
  H   H1387     1.0  0.39694  0.45980  0.25314  1.0000
  H   H1388     1.0  0.37714  0.44112  0.26172  1.0000
  O   O695      1.0  0.68685  0.28174  0.33770  1.0000
  H   H1389     1.0  0.68590  0.28931  0.31865  1.0000
  H   H1390     1.0  0.67186  0.27197  0.33891  1.0000
  O   O696      1.0  0.55449  0.67142  0.36477  1.0000
  H   H1391     1.0  0.55012  0.68721  0.37227  1.0000
  H   H1392     1.0  0.54532  0.66025  0.37703  1.0000
  O   O697      1.0  0.29375  0.11289  0.85014  1.0000
  H   H1393     1.0  0.27627  0.11106  0.85532  1.0000
  H   H1394     1.0  0.29572  0.10335  0.83254  1.0000
  O   O698      1.0  0.11332  0.93383  0.40290  1.0000
  H   H1395     1.0  0.09572  0.93426  0.39786  1.0000
  H   H1396     1.0  0.11985  0.92004  0.39237  1.0000
  O   O699      1.0  0.33359  0.15262  0.04879  1.0000
  H   H1397     1.0  0.32256  0.15062  0.06543  1.0000
  H   H1398     1.0  0.32479  0.16370  0.03604  1.0000
  O   O700      1.0  0.13516  0.43578  0.01958  1.0000
  H   H1399     1.0  0.13867  0.45229  0.01404  1.0000
  H   H1400     1.0  0.11893  0.43649  0.02897  1.0000
  O   O701      1.0  0.16335  0.51125  0.10716  1.0000
  H   H1401     1.0  0.16536  0.51180  0.08612  1.0000
  H   H1402     1.0  0.15569  0.52655  0.11209  1.0000
  O   O702      1.0  0.25250  0.31003  0.21770  1.0000
  H   H1403     1.0  0.26152  0.30667  0.19978  1.0000
  H   H1404     1.0  0.25102  0.29449  0.22724  1.0000
  O   O703      1.0  0.62083  0.28931  0.88863  1.0000
  H   H1405     1.0  0.62035  0.28232  0.90803  1.0000
  H   H1406     1.0  0.63831  0.28863  0.88306  1.0000
  O   O704      1.0  0.95907  0.74066  0.50303  1.0000
  H   H1407     1.0  0.95585  0.73194  0.52100  1.0000
  H   H1408     1.0  0.97700  0.73939  0.50025  1.0000
  O   O705      1.0  0.99876  0.25094  0.03640  1.0000
  H   H1409     1.0  0.99069  0.26587  0.03075  1.0000
  H   H1410     1.0  0.99481  0.23980  0.02074  1.0000
  O   O706      1.0  0.39580  0.29718  0.52905  1.0000
  H   H1411     1.0  0.40474  0.29686  0.54748  1.0000
  H   H1412     1.0  0.40002  0.28201  0.51977  1.0000
  O   O707      1.0  0.86713  0.46176  0.97875  1.0000
  H   H1413     1.0  0.88407  0.45817  0.98490  1.0000
  H   H1414     1.0  0.86337  0.44962  0.96417  1.0000
  O   O708      1.0  0.48775  0.32505  0.49934  1.0000
  H   H1415     1.0  0.48070  0.30896  0.49895  1.0000
  H   H1416     1.0  0.50411  0.32301  0.50813  1.0000
  O   O709      1.0  0.36561  0.21191  0.56483  1.0000
  H   H1417     1.0  0.35217  0.21170  0.57905  1.0000
  H   H1418     1.0  0.35816  0.20548  0.54717  1.0000
  O   O710      1.0  0.60617  0.10401  0.22020  1.0000
  H   H1419     1.0  0.59607  0.11153  0.20515  1.0000
  H   H1420     1.0  0.59888  0.08815  0.22269  1.0000
  O   O711      1.0  0.91812  0.36542  0.90873  1.0000
  H   H1421     1.0  0.93175  0.37506  0.91637  1.0000
  H   H1422     1.0  0.90927  0.37617  0.89563  1.0000
  O   O712      1.0  0.31380  0.48723  0.97599  1.0000
  H   H1423     1.0  0.29843  0.49407  0.98356  1.0000
  H   H1424     1.0  0.31421  0.47100  0.98382  1.0000
  O   O713      1.0  0.90192  0.63200  0.46699  1.0000
  H   H1425     1.0  0.91175  0.62917  0.44953  1.0000
  H   H1426     1.0  0.89176  0.64595  0.46231  1.0000
  O   O714      1.0  0.85510  0.16185  0.31178  1.0000
  H   H1427     1.0  0.85943  0.16594  0.29182  1.0000
  H   H1428     1.0  0.83838  0.15518  0.31047  1.0000
  O   O715      1.0  0.13503  0.72424  0.14757  1.0000
  H   H1429     1.0  0.15229  0.72658  0.15339  1.0000
  H   H1430     1.0  0.12628  0.72089  0.16567  1.0000
  O   O716      1.0  0.91702  0.69597  0.76553  1.0000
  H   H1431     1.0  0.93321  0.69249  0.77407  1.0000
  H   H1432     1.0  0.91289  0.71194  0.77263  1.0000
  O   O717      1.0  0.64190  0.40874  0.09403  1.0000
  H   H1433     1.0  0.62627  0.41307  0.10339  1.0000
  H   H1434     1.0  0.65389  0.40793  0.10988  1.0000
  O   O718      1.0  0.25437  0.13361  0.92296  1.0000
  H   H1435     1.0  0.24366  0.14519  0.91321  1.0000
  H   H1436     1.0  0.26342  0.12578  0.90725  1.0000
  O   O719      1.0  0.90416  0.60770  0.87397  1.0000
  H   H1437     1.0  0.91295  0.59511  0.86347  1.0000
  H   H1438     1.0  0.91720  0.61874  0.88012  1.0000
  O   O720      1.0  0.67723  0.24943  0.10143  1.0000
  H   H1439     1.0  0.66757  0.23957  0.11478  1.0000
  H   H1440     1.0  0.68279  0.26295  0.11317  1.0000
  O   O721      1.0  0.16443  0.62731  0.53835  1.0000
  H   H1441     1.0  0.17300  0.61222  0.53466  1.0000
  H   H1442     1.0  0.15059  0.62736  0.52467  1.0000
  O   O722      1.0  0.73329  0.94096  0.04834  1.0000
  H   H1443     1.0  0.73696  0.92386  0.04914  1.0000
  H   H1444     1.0  0.71560  0.94176  0.04378  1.0000
  O   O723      1.0  0.17030  0.11382  0.99154  1.0000
  H   H1445     1.0  0.18427  0.10789  0.00297  1.0000
  H   H1446     1.0  0.15586  0.10552  0.99946  1.0000
  O   O724      1.0  0.95003  0.70646  0.89451  1.0000
  H   H1447     1.0  0.96805  0.70649  0.89685  1.0000
  H   H1448     1.0  0.94418  0.71894  0.90765  1.0000
  O   O725      1.0  0.36365  0.57364  0.39661  1.0000
  H   H1449     1.0  0.36293  0.56214  0.41253  1.0000
  H   H1450     1.0  0.34864  0.57054  0.38534  1.0000
  O   O726      1.0  0.44478  0.02752  0.73580  1.0000
  H   H1451     1.0  0.42672  0.02637  0.73711  1.0000
  H   H1452     1.0  0.44893  0.04194  0.74674  1.0000
  O   O727      1.0  0.26873  0.90658  0.02754  1.0000
  H   H1453     1.0  0.27209  0.90907  0.00695  1.0000
  H   H1454     1.0  0.28453  0.90988  0.03711  1.0000
  O   O728      1.0  0.24724  0.86210  0.15925  1.0000
  H   H1455     1.0  0.26020  0.87343  0.15374  1.0000
  H   H1456     1.0  0.24704  0.86257  0.18043  1.0000
  O   O729      1.0  0.71143  0.72807  0.62266  1.0000
  H   H1457     1.0  0.70764  0.71631  0.60764  1.0000
  H   H1458     1.0  0.70431  0.74299  0.61542  1.0000
  O   O730      1.0  0.61422  0.94412  0.12407  1.0000
  H   H1459     1.0  0.60186  0.95673  0.12662  1.0000
  H   H1460     1.0  0.60460  0.93010  0.11832  1.0000
  O   O731      1.0  0.55357  0.43981  0.68598  1.0000
  H   H1461     1.0  0.55828  0.45253  0.69941  1.0000
  H   H1462     1.0  0.53736  0.44469  0.67856  1.0000
  O   O732      1.0  0.82056  0.31472  0.15552  1.0000
  H   H1463     1.0  0.80793  0.32511  0.14700  1.0000
  H   H1464     1.0  0.83162  0.31084  0.13941  1.0000
  O   O733      1.0  0.44708  0.92223  0.20621  1.0000
  H   H1465     1.0  0.44236  0.92098  0.22660  1.0000
  H   H1466     1.0  0.43471  0.91268  0.19593  1.0000
  O   O734      1.0  0.28205  0.59319  0.36885  1.0000
  H   H1467     1.0  0.29024  0.59089  0.38754  1.0000
  H   H1468     1.0  0.26755  0.60302  0.37328  1.0000
  O   O735      1.0  0.44757  0.21781  0.67867  1.0000
  H   H1469     1.0  0.44108  0.22253  0.69761  1.0000
  H   H1470     1.0  0.43286  0.21613  0.66646  1.0000
  O   O736      1.0  0.24997  0.01232  0.66616  1.0000
  H   H1471     1.0  0.24665  0.01918  0.64707  1.0000
  H   H1472     1.0  0.23923  0.02127  0.67933  1.0000
  O   O737      1.0  0.11969  0.77003  0.06862  1.0000
  H   H1473     1.0  0.12110  0.78735  0.06641  1.0000
  H   H1474     1.0  0.11387  0.76441  0.04976  1.0000
  O   O738      1.0  0.23224  0.16819  0.17222  1.0000
  H   H1475     1.0  0.24349  0.16835  0.18883  1.0000
  H   H1476     1.0  0.22947  0.18506  0.16777  1.0000
  O   O739      1.0  0.26376  0.32829  0.38991  1.0000
  H   H1477     1.0  0.27805  0.32269  0.37879  1.0000
  H   H1478     1.0  0.27017  0.33065  0.40952  1.0000
  O   O740      1.0  0.19172  0.74087  0.72571  1.0000
  H   H1479     1.0  0.20536  0.74184  0.73961  1.0000
  H   H1480     1.0  0.18092  0.72834  0.73337  1.0000
  O   O741      1.0  0.75181  0.07631  0.28550  1.0000
  H   H1481     1.0  0.73690  0.08446  0.29239  1.0000
  H   H1482     1.0  0.74743  0.05936  0.28570  1.0000
  O   O742      1.0  0.17089  0.94962  0.43282  1.0000
  H   H1483     1.0  0.18789  0.95512  0.42969  1.0000
  H   H1484     1.0  0.17080  0.94366  0.45273  1.0000
  O   O743      1.0  0.98153  0.91457  0.16548  1.0000
  H   H1485     1.0  0.96645  0.91413  0.17724  1.0000
  H   H1486     1.0  0.97932  0.92841  0.15282  1.0000
  O   O744      1.0  0.59180  0.52182  0.73651  1.0000
  H   H1487     1.0  0.60568  0.53085  0.74461  1.0000
  H   H1488     1.0  0.59430  0.50551  0.74349  1.0000
  O   O745      1.0  0.14361  0.62851  0.75727  1.0000
  H   H1489     1.0  0.15720  0.63990  0.75482  1.0000
  H   H1490     1.0  0.14622  0.62171  0.77654  1.0000
  O   O746      1.0  0.69651  0.58294  0.57368  1.0000
  H   H1491     1.0  0.70206  0.59940  0.57657  1.0000
  H   H1492     1.0  0.67910  0.58304  0.57956  1.0000
  O   O747      1.0  0.52685  0.78951  0.06544  1.0000
  H   H1493     1.0  0.53047  0.79177  0.04486  1.0000
  H   H1494     1.0  0.50969  0.78391  0.06588  1.0000
  O   O748      1.0  0.11795  0.49454  0.26703  1.0000
  H   H1495     1.0  0.11701  0.50944  0.25603  1.0000
  H   H1496     1.0  0.10070  0.48941  0.26905  1.0000
  O   O749      1.0  0.33620  0.29659  0.42068  1.0000
  H   H1497     1.0  0.34545  0.30548  0.40600  1.0000
  H   H1498     1.0  0.32795  0.28384  0.40989  1.0000
  O   O750      1.0  0.29529  0.18337  0.42395  1.0000
  H   H1499     1.0  0.28491  0.19630  0.41649  1.0000
  H   H1500     1.0  0.31091  0.18495  0.41336  1.0000
  O   O751      1.0  0.68235  0.91817  0.30502  1.0000
  H   H1501     1.0  0.68618  0.92351  0.32468  1.0000
  H   H1502     1.0  0.69101  0.90291  0.30309  1.0000
  O   O752      1.0  0.65171  0.03465  0.07062  1.0000
  H   H1503     1.0  0.65019  0.02309  0.05483  1.0000
  H   H1504     1.0  0.66913  0.03950  0.07024  1.0000
  O   O753      1.0  0.54544  0.70778  0.83151  1.0000
  H   H1505     1.0  0.53907  0.69572  0.84490  1.0000
  H   H1506     1.0  0.54891  0.72165  0.84372  1.0000
  O   O754      1.0  0.05748  0.61999  0.82355  1.0000
  H   H1507     1.0  0.05205  0.63571  0.81683  1.0000
  H   H1508     1.0  0.07381  0.61781  0.81475  1.0000
  O   O755      1.0  0.79338  0.80179  0.92545  1.0000
  H   H1509     1.0  0.78360  0.78708  0.92501  1.0000
  H   H1510     1.0  0.78766  0.81017  0.94278  1.0000
  O   O756      1.0  0.73658  0.76272  0.15419  1.0000
  H   H1511     1.0  0.74227  0.77341  0.13881  1.0000
  H   H1512     1.0  0.72478  0.77229  0.16532  1.0000
  O   O757      1.0  0.64815  0.39737  0.60550  1.0000
  H   H1513     1.0  0.63292  0.40673  0.60368  1.0000
  H   H1514     1.0  0.64253  0.38148  0.61134  1.0000
  O   O758      1.0  0.93875  0.89510  0.40751  1.0000
  H   H1515     1.0  0.93377  0.90452  0.39065  1.0000
  H   H1516     1.0  0.95529  0.88917  0.40263  1.0000
  O   O759      1.0  0.49424  0.81263  0.27065  1.0000
  H   H1517     1.0  0.49369  0.82185  0.28863  1.0000
  H   H1518     1.0  0.50894  0.80253  0.27262  1.0000
  O   O760      1.0  0.41901  0.54635  0.45446  1.0000
  H   H1519     1.0  0.42827  0.56124  0.45213  1.0000
  H   H1520     1.0  0.40458  0.54821  0.44183  1.0000
  O   O761      1.0  0.10838  0.20408  0.08428  1.0000
  H   H1521     1.0  0.12449  0.19732  0.08949  1.0000
  H   H1522     1.0  0.11111  0.22135  0.08413  1.0000
  O   O762      1.0  0.54625  0.39773  0.58360  1.0000
  H   H1523     1.0  0.54316  0.40243  0.60367  1.0000
  H   H1524     1.0  0.54151  0.41172  0.57219  1.0000
  O   O763      1.0  0.98000  0.40369  0.04369  1.0000
  H   H1525     1.0  0.99531  0.39439  0.04503  1.0000
  H   H1526     1.0  0.98484  0.41831  0.03357  1.0000
  O   O764      1.0  0.51152  0.77428  0.80152  1.0000
  H   H1527     1.0  0.52700  0.78336  0.80083  1.0000
  H   H1528     1.0  0.51313  0.76420  0.81871  1.0000
  O   O765      1.0  0.34945  0.31778  0.75000  1.0000
  H   H1529     1.0  0.33192  0.32185  0.74772  1.0000
  H   H1530     1.0  0.34938  0.30108  0.75623  1.0000
  O   O766      1.0  0.33287  0.34775  0.99289  1.0000
  H   H1531     1.0  0.34571  0.34906  0.00776  1.0000
  H   H1532     1.0  0.34133  0.35185  0.97483  1.0000
  O   O767      1.0  0.37589  0.27749  0.08368  1.0000
  H   H1533     1.0  0.38633  0.28801  0.09538  1.0000
  H   H1534     1.0  0.37180  0.28696  0.06653  1.0000
  O   O768      1.0  0.51302  0.03448  0.99574  1.0000
  H   H1535     1.0  0.51688  0.01745  0.99719  1.0000
  H   H1536     1.0  0.51158  0.03746  0.97494  1.0000
  O   O769      1.0  0.24553  0.95237  0.08782  1.0000
  H   H1537     1.0  0.26296  0.94886  0.09179  1.0000
  H   H1538     1.0  0.24597  0.96428  0.07233  1.0000
  O   O770      1.0  0.53193  0.17214  0.56804  1.0000
  H   H1539     1.0  0.52300  0.18567  0.57645  1.0000
  H   H1540     1.0  0.51937  0.15964  0.56604  1.0000
  O   O771      1.0  0.32043  0.64383  0.08591  1.0000
  H   H1541     1.0  0.30297  0.64374  0.09163  1.0000
  H   H1542     1.0  0.32032  0.63866  0.06568  1.0000
  O   O772      1.0  0.40808  0.67569  0.51676  1.0000
  H   H1543     1.0  0.40632  0.68610  0.53364  1.0000
  H   H1544     1.0  0.39615  0.66282  0.52007  1.0000
  O   O773      1.0  0.25327  0.68194  0.40929  1.0000
  H   H1545     1.0  0.25585  0.66555  0.40261  1.0000
  H   H1546     1.0  0.26363  0.69166  0.39652  1.0000
  O   O774      1.0  0.01225  0.80855  0.35893  1.0000
  H   H1547     1.0  0.00164  0.81940  0.36998  1.0000
  H   H1548     1.0  0.02912  0.81401  0.36298  1.0000
  O   O775      1.0  0.36585  0.45574  0.81534  1.0000
  H   H1549     1.0  0.36154  0.47129  0.80711  1.0000
  H   H1550     1.0  0.36206  0.44430  0.79996  1.0000
  O   O776      1.0  0.45054  0.55889  0.56855  1.0000
  H   H1551     1.0  0.44762  0.57611  0.56756  1.0000
  H   H1552     1.0  0.44585  0.55296  0.54940  1.0000
  O   O777      1.0  0.62921  0.67300  0.65643  1.0000
  H   H1553     1.0  0.64489  0.68014  0.66264  1.0000
  H   H1554     1.0  0.62506  0.68138  0.63849  1.0000
  O   O778      1.0  0.99686  0.94034  0.33912  1.0000
  H   H1555     1.0  0.01177  0.94938  0.33409  1.0000
  H   H1556     1.0  0.99227  0.94618  0.35834  1.0000
  O   O779      1.0  0.13929  0.79445  0.91110  1.0000
  H   H1557     1.0  0.13106  0.78778  0.89406  1.0000
  H   H1558     1.0  0.12838  0.79032  0.92726  1.0000
  O   O780      1.0  0.63575  0.59788  0.38447  1.0000
  H   H1559     1.0  0.63091  0.59378  0.40426  1.0000
  H   H1560     1.0  0.65126  0.58921  0.38132  1.0000
  O   O781      1.0  0.93790  0.37939  0.11183  1.0000
  H   H1561     1.0  0.92286  0.36990  0.10910  1.0000
  H   H1562     1.0  0.93187  0.39559  0.11550  1.0000
  O   O782      1.0  0.31675  0.20940  0.69283  1.0000
  H   H1563     1.0  0.32666  0.20782  0.67519  1.0000
  H   H1564     1.0  0.32211  0.19610  0.70506  1.0000
  O   O783      1.0  0.70883  0.73603  0.10091  1.0000
  H   H1565     1.0  0.70494  0.75171  0.09277  1.0000
  H   H1566     1.0  0.71129  0.72575  0.08403  1.0000
  O   O784      1.0  0.02545  0.66374  0.21077  1.0000
  H   H1567     1.0  0.03890  0.65211  0.21250  1.0000
  H   H1568     1.0  0.02963  0.67623  0.22475  1.0000
  O   O785      1.0  0.60997  0.33843  0.35570  1.0000
  H   H1569     1.0  0.60731  0.33887  0.33475  1.0000
  H   H1570     1.0  0.62681  0.33225  0.35796  1.0000
  O   O786      1.0  0.23993  0.74692  0.16344  1.0000
  H   H1571     1.0  0.24281  0.74634  0.18434  1.0000
  H   H1572     1.0  0.23999  0.73019  0.15736  1.0000
  O   O787      1.0  0.25884  0.59680  0.25228  1.0000
  H   H1573     1.0  0.26820  0.58195  0.25009  1.0000
  H   H1574     1.0  0.27152  0.60923  0.25368  1.0000
  O   O788      1.0  0.54136  0.09667  0.77144  1.0000
  H   H1575     1.0  0.55720  0.09152  0.76324  1.0000
  H   H1576     1.0  0.54183  0.09111  0.79151  1.0000
  O   O789      1.0  0.46517  0.23496  0.31957  1.0000
  H   H1577     1.0  0.45917  0.22096  0.30902  1.0000
  H   H1578     1.0  0.46399  0.24805  0.30562  1.0000
  O   O790      1.0  0.80636  0.40361  0.03879  1.0000
  H   H1579     1.0  0.80765  0.41409  0.05567  1.0000
  H   H1580     1.0  0.79528  0.39077  0.04501  1.0000
  O   O791      1.0  0.09618  0.50461  0.49865  1.0000
  H   H1581     1.0  0.09790  0.49849  0.47891  1.0000
  H   H1582     1.0  0.10749  0.49479  0.51016  1.0000
  O   O792      1.0  0.15016  0.47344  0.23040  1.0000
  H   H1583     1.0  0.16761  0.47771  0.22789  1.0000
  H   H1584     1.0  0.14126  0.48394  0.21703  1.0000
  O   O793      1.0  0.66215  0.23141  0.40339  1.0000
  H   H1585     1.0  0.66702  0.24394  0.38976  1.0000
  H   H1586     1.0  0.65469  0.24002  0.41963  1.0000
  O   O794      1.0  0.04851  0.35719  0.92115  1.0000
  H   H1587     1.0  0.06187  0.36052  0.93488  1.0000
  H   H1588     1.0  0.03780  0.37125  0.92216  1.0000
  O   O795      1.0  0.51170  0.03416  0.07117  1.0000
  H   H1589     1.0  0.51632  0.05051  0.07632  1.0000
  H   H1590     1.0  0.49363  0.03386  0.07285  1.0000
  O   O796      1.0  0.17475  0.18259  0.47117  1.0000
  H   H1591     1.0  0.18241  0.16974  0.48239  1.0000
  H   H1592     1.0  0.17788  0.19702  0.48252  1.0000
  O   O797      1.0  0.04269  0.56363  0.90619  1.0000
  H   H1593     1.0  0.05457  0.56634  0.89053  1.0000
  H   H1594     1.0  0.05277  0.55776  0.92231  1.0000
  O   O798      1.0  0.23553  0.57842  0.81095  1.0000
  H   H1595     1.0  0.22964  0.57225  0.79237  1.0000
  H   H1596     1.0  0.25326  0.58116  0.80799  1.0000
  O   O799      1.0  0.26130  0.93255  0.69034  1.0000
  H   H1597     1.0  0.24738  0.92340  0.68253  1.0000
  H   H1598     1.0  0.27598  0.92520  0.68167  1.0000
  O   O800      1.0  0.65014  0.81240  0.81491  1.0000
  H   H1599     1.0  0.64547  0.82799  0.82275  1.0000
  H   H1600     1.0  0.64849  0.81421  0.79393  1.0000
  O   O801      1.0  0.42169  0.35601  0.14325  1.0000
  H   H1601     1.0  0.41695  0.34015  0.15020  1.0000
  H   H1602     1.0  0.41270  0.36708  0.15581  1.0000
  O   O802      1.0  0.57351  0.71693  0.96655  1.0000
  H   H1603     1.0  0.59000  0.71528  0.97513  1.0000
  H   H1604     1.0  0.56278  0.70713  0.97881  1.0000
  O   O803      1.0  0.39658  0.41945  0.15158  1.0000
  H   H1605     1.0  0.38633  0.42691  0.13663  1.0000
  H   H1606     1.0  0.40976  0.41136  0.14084  1.0000
  O   O804      1.0  0.40116  0.93350  0.85253  1.0000
  H   H1607     1.0  0.38752  0.93787  0.83962  1.0000
  H   H1608     1.0  0.40051  0.91607  0.85350  1.0000
  O   O805      1.0  0.67579  0.77290  0.13284  1.0000
  H   H1609     1.0  0.66396  0.78424  0.14111  1.0000
  H   H1610     1.0  0.69064  0.78242  0.12903  1.0000
  O   O806      1.0  0.03828  0.89780  0.02149  1.0000
  H   H1611     1.0  0.03356  0.90883  0.00602  1.0000
  H   H1612     1.0  0.05057  0.90659  0.03285  1.0000
  O   O807      1.0  0.57079  0.90067  0.83363  1.0000
  H   H1613     1.0  0.56285  0.89228  0.81753  1.0000
  H   H1614     1.0  0.56827  0.89021  0.85033  1.0000
  O   O808      1.0  0.72798  0.25864  0.48967  1.0000
  H   H1615     1.0  0.72920  0.25146  0.50892  1.0000
  H   H1616     1.0  0.72855  0.27586  0.49321  1.0000
  O   O809      1.0  0.64571  0.23530  0.26662  1.0000
  H   H1617     1.0  0.62903  0.22873  0.26892  1.0000
  H   H1618     1.0  0.64415  0.25202  0.27246  1.0000
  O   O810      1.0  0.74797  0.73177  0.57418  1.0000
  H   H1619     1.0  0.73061  0.73593  0.57078  1.0000
  H   H1620     1.0  0.74900  0.71476  0.56951  1.0000
  O   O811      1.0  0.47143  0.26897  0.17362  1.0000
  H   H1621     1.0  0.47704  0.25773  0.18844  1.0000
  H   H1622     1.0  0.47919  0.28414  0.17893  1.0000
  O   O812      1.0  0.75318  0.83973  0.60634  1.0000
  H   H1623     1.0  0.74770  0.82333  0.60288  1.0000
  H   H1624     1.0  0.73788  0.84909  0.60671  1.0000
  O   O813      1.0  0.89096  0.92684  0.68183  1.0000
  H   H1625     1.0  0.90892  0.92444  0.68192  1.0000
  H   H1626     1.0  0.88885  0.94404  0.67908  1.0000
  O   O814      1.0  0.57332  0.66849  0.75786  1.0000
  H   H1627     1.0  0.56813  0.67515  0.73924  1.0000
  H   H1628     1.0  0.59023  0.66283  0.75450  1.0000
  O   O815      1.0  0.27529  0.09317  0.74238  1.0000
  H   H1629     1.0  0.27945  0.07630  0.74494  1.0000
  H   H1630     1.0  0.29098  0.10160  0.74531  1.0000
  O   O816      1.0  0.77942  0.99021  0.54521  1.0000
  H   H1631     1.0  0.78156  0.99811  0.56394  1.0000
  H   H1632     1.0  0.76164  0.98695  0.54400  1.0000
  O   O817      1.0  0.99234  0.36159  0.52709  1.0000
  H   H1633     1.0  0.98260  0.34898  0.53634  1.0000
  H   H1634     1.0  0.99431  0.37374  0.54213  1.0000
  O   O818      1.0  0.41943  0.52657  0.86708  1.0000
  H   H1635     1.0  0.41375  0.51436  0.85346  1.0000
  H   H1636     1.0  0.42072  0.54111  0.85543  1.0000
  O   O819      1.0  0.78104  0.08876  0.97492  1.0000
  H   H1637     1.0  0.79890  0.09116  0.97715  1.0000
  H   H1638     1.0  0.77375  0.10429  0.97958  1.0000
  O   O820      1.0  0.40050  0.05773  0.71835  1.0000
  H   H1639     1.0  0.40131  0.04700  0.73504  1.0000
  H   H1640     1.0  0.40310  0.07366  0.72650  1.0000
  O   O821      1.0  0.59183  0.59771  0.10319  1.0000
  H   H1641     1.0  0.58763  0.58275  0.09342  1.0000
  H   H1642     1.0  0.58579  0.61019  0.09016  1.0000
  O   O822      1.0  0.55682  0.48649  0.91427  1.0000
  H   H1643     1.0  0.56160  0.48582  0.89386  1.0000
  H   H1644     1.0  0.56762  0.47487  0.92380  1.0000
  O   O823      1.0  0.74468  0.00544  0.16010  1.0000
  H   H1645     1.0  0.74155  0.01072  0.17996  1.0000
  H   H1646     1.0  0.75456  0.01828  0.15155  1.0000
  O   O824      1.0  0.99193  0.12088  0.28748  1.0000
  H   H1647     1.0  0.00971  0.12345  0.28468  1.0000
  H   H1648     1.0  0.98637  0.13489  0.29834  1.0000
  O   O825      1.0  0.62546  0.25490  0.64054  1.0000
  H   H1649     1.0  0.62882  0.26082  0.66007  1.0000
  H   H1650     1.0  0.61840  0.26862  0.63034  1.0000
  O   O826      1.0  0.21901  0.19549  0.55562  1.0000
  H   H1651     1.0  0.22435  0.18050  0.56453  1.0000
  H   H1652     1.0  0.22031  0.20731  0.57114  1.0000
  O   O827      1.0  0.92183  0.85380  0.04955  1.0000
  H   H1653     1.0  0.91543  0.84111  0.06204  1.0000
  H   H1654     1.0  0.91043  0.86716  0.05253  1.0000
  O   O828      1.0  0.01872  0.45520  0.28875  1.0000
  H   H1655     1.0  0.01303  0.43940  0.28265  1.0000
  H   H1656     1.0  0.01064  0.46627  0.27536  1.0000
  O   O829      1.0  0.45039  0.71046  0.94783  1.0000
  H   H1657     1.0  0.44616  0.69663  0.93588  1.0000
  H   H1658     1.0  0.43696  0.71147  0.96201  1.0000
  O   O830      1.0  0.92463  0.09345  0.37554  1.0000
  H   H1659     1.0  0.93283  0.07890  0.38231  1.0000
  H   H1660     1.0  0.91070  0.09563  0.38884  1.0000
  O   O831      1.0  0.11475  0.06652  0.20112  1.0000
  H   H1661     1.0  0.11363  0.07649  0.18378  1.0000
  H   H1662     1.0  0.10507  0.05227  0.19642  1.0000
  O   O832      1.0  0.96701  0.85358  0.69556  1.0000
  H   H1663     1.0  0.98374  0.84788  0.69991  1.0000
  H   H1664     1.0  0.95884  0.83998  0.68633  1.0000
  O   O833      1.0  0.62222  0.93561  0.45784  1.0000
  H   H1665     1.0  0.60426  0.93745  0.45607  1.0000
  H   H1666     1.0  0.62909  0.94814  0.44545  1.0000
  O   O834      1.0  0.38133  0.41087  0.72123  1.0000
  H   H1667     1.0  0.36420  0.41653  0.72212  1.0000
  H   H1668     1.0  0.38813  0.41441  0.74039  1.0000
  O   O835      1.0  0.29908  0.26806  0.18231  1.0000
  H   H1669     1.0  0.30336  0.25412  0.17057  1.0000
  H   H1670     1.0  0.28794  0.27741  0.17002  1.0000
  O   O836      1.0  0.90347  0.11339  0.59980  1.0000
  H   H1671     1.0  0.89336  0.09901  0.59758  1.0000
  H   H1672     1.0  0.91968  0.10748  0.60601  1.0000
  O   O837      1.0  0.74241  0.27082  0.22293  1.0000
  H   H1673     1.0  0.75316  0.26510  0.23852  1.0000
  H   H1674     1.0  0.73813  0.25644  0.21199  1.0000
  O   O838      1.0  0.64136  0.17811  0.03283  1.0000
  H   H1675     1.0  0.63245  0.16329  0.02868  1.0000
  H   H1676     1.0  0.65842  0.17489  0.02683  1.0000
  O   O839      1.0  0.45080  0.54568  0.03411  1.0000
  H   H1677     1.0  0.45661  0.56122  0.04101  1.0000
  H   H1678     1.0  0.43337  0.54828  0.02920  1.0000
  O   O840      1.0  0.78472  0.91206  0.05862  1.0000
  H   H1679     1.0  0.79300  0.89954  0.06978  1.0000
  H   H1680     1.0  0.79735  0.91771  0.04506  1.0000
  O   O841      1.0  0.59774  0.91741  0.92994  1.0000
  H   H1681     1.0  0.59396  0.92114  0.95015  1.0000
  H   H1682     1.0  0.60117  0.93291  0.92104  1.0000
  O   O842      1.0  0.09785  0.01858  0.66371  1.0000
  H   H1683     1.0  0.10902  0.00720  0.65434  1.0000
  H   H1684     1.0  0.08177  0.01052  0.66393  1.0000
  O   O843      1.0  0.10565  0.19478  0.23752  1.0000
  H   H1685     1.0  0.10661  0.21111  0.23008  1.0000
  H   H1686     1.0  0.09722  0.19634  0.25617  1.0000
  O   O844      1.0  0.56052  0.60796  0.15575  1.0000
  H   H1687     1.0  0.56020  0.59280  0.16627  1.0000
  H   H1688     1.0  0.54390  0.60941  0.14745  1.0000
  O   O845      1.0  0.75237  0.21227  0.22275  1.0000
  H   H1689     1.0  0.76945  0.21754  0.21963  1.0000
  H   H1690     1.0  0.74876  0.21670  0.24280  1.0000
  O   O846      1.0  0.48852  0.36190  0.80122  1.0000
  H   H1691     1.0  0.47620  0.35398  0.78899  1.0000
  H   H1692     1.0  0.49832  0.34883  0.80937  1.0000
  O   O847      1.0  0.78641  0.63693  0.85215  1.0000
  H   H1693     1.0  0.79302  0.63424  0.87160  1.0000
  H   H1694     1.0  0.80065  0.64249  0.84090  1.0000
  O   O848      1.0  0.32398  0.74850  0.08799  1.0000
  H   H1695     1.0  0.30832  0.75324  0.07899  1.0000
  H   H1696     1.0  0.33331  0.74082  0.07240  1.0000
  O   O849      1.0  0.00223  0.51087  0.81116  1.0000
  H   H1697     1.0  0.99096  0.51433  0.79511  1.0000
  H   H1698     1.0  0.01795  0.50683  0.80182  1.0000
  O   O850      1.0  0.15286  0.68119  0.18529  1.0000
  H   H1699     1.0  0.13575  0.68630  0.18850  1.0000
  H   H1700     1.0  0.16199  0.68748  0.20192  1.0000
  O   O851      1.0  0.22136  0.35339  0.79501  1.0000
  H   H1701     1.0  0.21032  0.34104  0.78742  1.0000
  H   H1702     1.0  0.23803  0.34769  0.79036  1.0000
  O   O852      1.0  0.32672  0.72516  0.58711  1.0000
  H   H1703     1.0  0.33722  0.73614  0.57611  1.0000
  H   H1704     1.0  0.31203  0.73456  0.59200  1.0000
  O   O853      1.0  0.42888  0.26265  0.22747  1.0000
  H   H1705     1.0  0.41234  0.25718  0.22187  1.0000
  H   H1706     1.0  0.43941  0.24853  0.22538  1.0000
  O   O854      1.0  0.54491  0.08383  0.63808  1.0000
  H   H1707     1.0  0.55326  0.06923  0.64442  1.0000
  H   H1708     1.0  0.55213  0.08730  0.61911  1.0000
  O   O855      1.0  0.50521  0.94779  0.66973  1.0000
  H   H1709     1.0  0.48982  0.95091  0.68026  1.0000
  H   H1710     1.0  0.51395  0.93604  0.68162  1.0000
  O   O856      1.0  0.63279  0.41015  0.92330  1.0000
  H   H1711     1.0  0.62088  0.42155  0.93131  1.0000
  H   H1712     1.0  0.64720  0.41987  0.91817  1.0000
  O   O857      1.0  0.30940  0.67965  0.86686  1.0000
  H   H1713     1.0  0.31447  0.69270  0.85409  1.0000
  H   H1714     1.0  0.31735  0.66547  0.85868  1.0000
  O   O858      1.0  0.21447  0.30806  0.41400  1.0000
  H   H1715     1.0  0.19697  0.30523  0.41838  1.0000
  H   H1716     1.0  0.22057  0.31738  0.43044  1.0000
  O   O859      1.0  0.87060  0.73915  0.18194  1.0000
  H   H1717     1.0  0.88005  0.74869  0.16806  1.0000
  H   H1718     1.0  0.87819  0.72330  0.18108  1.0000
  O   O860      1.0  0.92873  0.64774  0.15945  1.0000
  H   H1719     1.0  0.92893  0.65854  0.14280  1.0000
  H   H1720     1.0  0.93022  0.65827  0.17626  1.0000
  O   O861      1.0  0.16222  0.91867  0.93320  1.0000
  H   H1721     1.0  0.16578  0.90619  0.91897  1.0000
  H   H1722     1.0  0.14421  0.91818  0.93558  1.0000
  O   O862      1.0  0.84170  0.49116  0.25500  1.0000
  H   H1723     1.0  0.82989  0.48121  0.26563  1.0000
  H   H1724     1.0  0.84247  0.50604  0.26606  1.0000
  O   O863      1.0  0.96969  0.01774  0.75801  1.0000
  H   H1725     1.0  0.95685  0.01687  0.77293  1.0000
  H   H1726     1.0  0.97058  0.03469  0.75297  1.0000
  O   O864      1.0  0.31038  0.58871  0.98554  1.0000
  H   H1727     1.0  0.29998  0.57543  0.97908  1.0000
  H   H1728     1.0  0.29860  0.60101  0.99164  1.0000
  O   O865      1.0  0.39660  0.87334  0.76174  1.0000
  H   H1729     1.0  0.40313  0.88202  0.74502  1.0000
  H   H1730     1.0  0.40549  0.88004  0.77832  1.0000
  O   O866      1.0  0.39706  0.63988  0.18774  1.0000
  H   H1731     1.0  0.40857  0.64974  0.19891  1.0000
  H   H1732     1.0  0.38436  0.65105  0.18101  1.0000
  O   O867      1.0  0.14232  0.24134  0.42311  1.0000
  H   H1733     1.0  0.14259  0.25669  0.41298  1.0000
  H   H1734     1.0  0.13940  0.22956  0.40785  1.0000
  O   O868      1.0  0.88359  0.64230  0.08832  1.0000
  H   H1735     1.0  0.89711  0.64678  0.07529  1.0000
  H   H1736     1.0  0.87706  0.62745  0.08020  1.0000
  O   O869      1.0  0.92079  0.76210  0.46341  1.0000
  H   H1737     1.0  0.92053  0.75631  0.44343  1.0000
  H   H1738     1.0  0.92462  0.77912  0.46172  1.0000
  O   O870      1.0  0.58314  0.92142  0.38288  1.0000
  H   H1739     1.0  0.59793  0.92013  0.39503  1.0000
  H   H1740     1.0  0.58109  0.93858  0.37972  1.0000
  O   O871      1.0  0.95662  0.77470  0.77385  1.0000
  H   H1741     1.0  0.97215  0.78288  0.77841  1.0000
  H   H1742     1.0  0.94826  0.78529  0.76013  1.0000
  O   O872      1.0  0.83899  0.09221  0.82701  1.0000
  H   H1743     1.0  0.82913  0.09464  0.80948  1.0000
  H   H1744     1.0  0.82803  0.09707  0.84282  1.0000
  O   O873      1.0  0.09049  0.40916  0.96454  1.0000
  H   H1745     1.0  0.08967  0.41695  0.94561  1.0000
  H   H1746     1.0  0.09812  0.39364  0.96064  1.0000
  O   O874      1.0  0.59041  0.71962  0.89509  1.0000
  H   H1747     1.0  0.60092  0.71419  0.87914  1.0000
  H   H1748     1.0  0.58110  0.73307  0.88704  1.0000
  O   O875      1.0  0.07052  0.54426  0.22768  1.0000
  H   H1749     1.0  0.07051  0.55446  0.21049  1.0000
  H   H1750     1.0  0.08760  0.53854  0.22922  1.0000
  O   O876      1.0  0.74696  0.86585  0.86541  1.0000
  H   H1751     1.0  0.74090  0.88084  0.85715  1.0000
  H   H1752     1.0  0.73284  0.85495  0.86410  1.0000
  O   O877      1.0  0.15365  0.99850  0.58135  1.0000
  H   H1753     1.0  0.16933  0.99261  0.57347  1.0000
  H   H1754     1.0  0.14408  0.98406  0.58549  1.0000
  O   O878      1.0  0.98710  0.55161  0.85832  1.0000
  H   H1755     1.0  0.97002  0.55060  0.86530  1.0000
  H   H1756     1.0  0.98606  0.56142  0.84084  1.0000
  O   O879      1.0  0.49839  0.60451  0.32250  1.0000
  H   H1757     1.0  0.51627  0.60445  0.31897  1.0000
  H   H1758     1.0  0.49294  0.58847  0.31707  1.0000
  O   O880      1.0  0.23480  0.07800  0.45949  1.0000
  H   H1759     1.0  0.23332  0.06286  0.46992  1.0000
  H   H1760     1.0  0.24959  0.08553  0.46764  1.0000
  O   O881      1.0  0.37240  0.40452  0.78973  1.0000
  H   H1761     1.0  0.37363  0.41886  0.77773  1.0000
  H   H1762     1.0  0.35549  0.40488  0.79737  1.0000
  O   O882      1.0  0.44062  0.93829  0.60927  1.0000
  H   H1763     1.0  0.43937  0.95486  0.61580  1.0000
  H   H1764     1.0  0.42450  0.93128  0.61395  1.0000
  O   O883      1.0  0.08745  0.11679  0.30051  1.0000
  H   H1765     1.0  0.08533  0.12578  0.28252  1.0000
  H   H1766     1.0  0.07148  0.10890  0.30353  1.0000
  O   O884      1.0  0.44786  0.20565  0.82522  1.0000
  H   H1767     1.0  0.45389  0.20431  0.80531  1.0000
  H   H1768     1.0  0.45281  0.22167  0.83133  1.0000
  O   O885      1.0  0.03548  0.40288  0.98450  1.0000
  H   H1769     1.0  0.03426  0.39115  0.96887  1.0000
  H   H1770     1.0  0.02257  0.39819  0.99824  1.0000
  O   O886      1.0  0.63753  0.01948  0.78634  1.0000
  H   H1771     1.0  0.63984  0.02288  0.76574  1.0000
  H   H1772     1.0  0.65378  0.01396  0.79294  1.0000
  O   O887      1.0  0.96074  0.60454  0.42501  1.0000
  H   H1773     1.0  0.97693  0.59800  0.43030  1.0000
  H   H1774     1.0  0.96176  0.62144  0.43021  1.0000
  O   O888      1.0  0.48593  0.09188  0.09278  1.0000
  H   H1775     1.0  0.47685  0.08239  0.07850  1.0000
  H   H1776     1.0  0.50294  0.08589  0.09173  1.0000
  O   O889      1.0  0.65445  0.27732  0.15069  1.0000
  H   H1777     1.0  0.64869  0.28323  0.13192  1.0000
  H   H1778     1.0  0.65330  0.25994  0.14912  1.0000
  O   O890      1.0  0.32861  0.29180  0.69021  1.0000
  H   H1779     1.0  0.34495  0.29626  0.68279  1.0000
  H   H1780     1.0  0.32750  0.29973  0.70903  1.0000
  O   O891      1.0  0.70525  0.46640  0.47086  1.0000
  H   H1781     1.0  0.69968  0.45575  0.45539  1.0000
  H   H1782     1.0  0.72334  0.46540  0.47025  1.0000
  O   O892      1.0  0.66038  0.03740  0.42148  1.0000
  H   H1783     1.0  0.67799  0.03808  0.41650  1.0000
  H   H1784     1.0  0.65733  0.05213  0.43230  1.0000
  O   O893      1.0  0.52049  0.56199  0.54456  1.0000
  H   H1785     1.0  0.52552  0.56290  0.52424  1.0000
  H   H1786     1.0  0.50246  0.56376  0.54412  1.0000
  O   O894      1.0  0.62653  0.74102  0.49351  1.0000
  H   H1787     1.0  0.63319  0.72485  0.49162  1.0000
  H   H1788     1.0  0.64095  0.75144  0.49128  1.0000
  O   O895      1.0  0.42525  0.46227  0.01183  1.0000
  H   H1789     1.0  0.43236  0.46027  0.99250  1.0000
  H   H1790     1.0  0.43311  0.44981  0.02349  1.0000
  O   O896      1.0  0.50423  0.07890  0.15378  1.0000
  H   H1791     1.0  0.49669  0.06528  0.16370  1.0000
  H   H1792     1.0  0.50543  0.07387  0.13355  1.0000
  O   O897      1.0  0.83335  0.45290  0.75329  1.0000
  H   H1793     1.0  0.84956  0.45734  0.74547  1.0000
  H   H1794     1.0  0.83687  0.44722  0.77289  1.0000
  O   O898      1.0  0.23052  0.83551  0.21352  1.0000
  H   H1795     1.0  0.23344  0.85063  0.22357  1.0000
  H   H1796     1.0  0.21318  0.83171  0.21762  1.0000
  O   O899      1.0  0.86326  0.30001  0.79793  1.0000
  H   H1797     1.0  0.87531  0.28718  0.79502  1.0000
  H   H1798     1.0  0.84830  0.29188  0.80471  1.0000
  O   O900      1.0  0.75113  0.66520  0.12082  1.0000
  H   H1799     1.0  0.75205  0.65125  0.13353  1.0000
  H   H1800     1.0  0.73374  0.67008  0.12157  1.0000
  O   O901      1.0  0.20675  0.20923  0.30690  1.0000
  H   H1801     1.0  0.19638  0.19582  0.30076  1.0000
  H   H1802     1.0  0.22285  0.20618  0.29788  1.0000
  O   O902      1.0  0.10359  0.93626  0.05220  1.0000
  H   H1803     1.0  0.10730  0.92939  0.07118  1.0000
  H   H1804     1.0  0.08592  0.94010  0.05302  1.0000
  O   O903      1.0  0.89432  0.93771  0.33198  1.0000
  H   H1805     1.0  0.87768  0.93998  0.32402  1.0000
  H   H1806     1.0  0.90023  0.92293  0.32306  1.0000
  O   O904      1.0  0.15481  0.54935  0.14666  1.0000
  H   H1807     1.0  0.13711  0.55279  0.14473  1.0000
  H   H1808     1.0  0.15560  0.53608  0.16040  1.0000
  O   O905      1.0  0.50592  0.45800  0.50815  1.0000
  H   H1809     1.0  0.49829  0.46916  0.49452  1.0000
  H   H1810     1.0  0.51886  0.45001  0.49691  1.0000
  O   O906      1.0  0.92111  0.60271  0.28369  1.0000
  H   H1811     1.0  0.90788  0.61415  0.28788  1.0000
  H   H1812     1.0  0.92291  0.59350  0.30157  1.0000
  O   O907      1.0  0.41570  0.98469  0.52359  1.0000
  H   H1813     1.0  0.39886  0.98342  0.53129  1.0000
  H   H1814     1.0  0.42325  0.96918  0.52773  1.0000
  O   O908      1.0  0.21900  0.35557  0.39167  1.0000
  H   H1815     1.0  0.21658  0.33880  0.39690  1.0000
  H   H1816     1.0  0.20250  0.36270  0.39333  1.0000
  O   O909      1.0  0.62766  0.79401  0.08419  1.0000
  H   H1817     1.0  0.63583  0.78848  0.10187  1.0000
  H   H1818     1.0  0.61632  0.80652  0.09073  1.0000
  O   O910      1.0  0.91631  0.06702  0.84672  1.0000
  H   H1819     1.0  0.92187  0.06959  0.86663  1.0000
  H   H1820     1.0  0.92658  0.05385  0.83966  1.0000
  O   O911      1.0  0.68744  0.30628  0.00492  1.0000
  H   H1821     1.0  0.69557  0.31913  0.01566  1.0000
  H   H1822     1.0  0.66971  0.30910  0.00779  1.0000
  O   O912      1.0  0.93170  0.99899  0.13828  1.0000
  H   H1823     1.0  0.92654  0.98573  0.15069  1.0000
  H   H1824     1.0  0.91674  0.00331  0.12751  1.0000
  O   O913      1.0  0.43407  0.41541  0.32774  1.0000
  H   H1825     1.0  0.45166  0.41682  0.33257  1.0000
  H   H1826     1.0  0.42543  0.42200  0.34456  1.0000
  O   O914      1.0  0.09722  0.50926  0.82418  1.0000
  H   H1827     1.0  0.09871  0.49835  0.80773  1.0000
  H   H1828     1.0  0.08405  0.52034  0.81859  1.0000
  O   O915      1.0  0.98025  0.98962  0.53223  1.0000
  H   H1829     1.0  0.98351  0.99884  0.51465  1.0000
  H   H1830     1.0  0.96298  0.98453  0.53033  1.0000
  O   O916      1.0  0.68037  0.33613  0.76628  1.0000
  H   H1831     1.0  0.68448  0.33813  0.78677  1.0000
  H   H1832     1.0  0.68604  0.32000  0.76155  1.0000
  O   O917      1.0  0.15181  0.07539  0.88517  1.0000
  H   H1833     1.0  0.14360  0.08919  0.89391  1.0000
  H   H1834     1.0  0.16780  0.07440  0.89509  1.0000
  O   O918      1.0  0.61432  0.82490  0.46369  1.0000
  H   H1835     1.0  0.60458  0.83223  0.47918  1.0000
  H   H1836     1.0  0.60816  0.80850  0.46253  1.0000
  O   O919      1.0  0.46592  0.75567  0.27335  1.0000
  H   H1837     1.0  0.47895  0.76044  0.25980  1.0000
  H   H1838     1.0  0.47465  0.74689  0.28855  1.0000
  O   O920      1.0  0.72651  0.81073  0.15955  1.0000
  H   H1839     1.0  0.72498  0.80606  0.13922  1.0000
  H   H1840     1.0  0.70978  0.80892  0.16741  1.0000
  O   O921      1.0  0.57138  0.66524  0.09903  1.0000
  H   H1841     1.0  0.55420  0.66235  0.10483  1.0000
  H   H1842     1.0  0.58130  0.65819  0.11456  1.0000
  O   O922      1.0  0.15065  0.17290  0.19869  1.0000
  H   H1843     1.0  0.14442  0.15868  0.20860  1.0000
  H   H1844     1.0  0.16864  0.17076  0.19823  1.0000
  O   O923      1.0  0.94074  0.03468  0.55185  1.0000
  H   H1845     1.0  0.94434  0.02347  0.56754  1.0000
  H   H1846     1.0  0.94850  0.02756  0.53477  1.0000
  O   O924      1.0  0.16259  0.49753  0.50648  1.0000
  H   H1847     1.0  0.16526  0.48966  0.48783  1.0000
  H   H1848     1.0  0.14657  0.50552  0.50442  1.0000
  O   O925      1.0  0.72899  0.58044  0.63116  1.0000
  H   H1849     1.0  0.74701  0.58124  0.63330  1.0000
  H   H1850     1.0  0.72382  0.59709  0.62895  1.0000
  O   O926      1.0  0.41973  0.21759  0.53561  1.0000
  H   H1851     1.0  0.41506  0.20487  0.52216  1.0000
  H   H1852     1.0  0.43786  0.21757  0.53543  1.0000
  O   O927      1.0  0.36524  0.81259  0.80561  1.0000
  H   H1853     1.0  0.36399  0.82766  0.81622  1.0000
  H   H1854     1.0  0.36173  0.81688  0.78550  1.0000
  O   O928      1.0  0.90924  0.22536  0.63353  1.0000
  H   H1855     1.0  0.92043  0.22057  0.61791  1.0000
  H   H1856     1.0  0.91305  0.24222  0.63685  1.0000
  O   O929      1.0  0.65477  0.45165  0.59426  1.0000
  H   H1857     1.0  0.64519  0.45133  0.61223  1.0000
  H   H1858     1.0  0.64228  0.45222  0.57892  1.0000
  O   O930      1.0  0.86518  0.42146  0.51721  1.0000
  H   H1859     1.0  0.86545  0.42309  0.53829  1.0000
  H   H1860     1.0  0.87560  0.43453  0.51020  1.0000
  O   O931      1.0  0.55184  0.54878  0.69609  1.0000
  H   H1861     1.0  0.56367  0.54343  0.68141  1.0000
  H   H1862     1.0  0.55287  0.56621  0.69554  1.0000
  O   O932      1.0  0.58071  0.11344  0.38876  1.0000
  H   H1863     1.0  0.59219  0.12672  0.38573  1.0000
  H   H1864     1.0  0.56635  0.12067  0.39823  1.0000
  O   O933      1.0  0.74941  0.12997  0.39326  1.0000
  H   H1865     1.0  0.74187  0.12373  0.37554  1.0000
  H   H1866     1.0  0.74646  0.11755  0.40775  1.0000
  O   O934      1.0  0.92204  0.19293  0.68358  1.0000
  H   H1867     1.0  0.93216  0.20741  0.68282  1.0000
  H   H1868     1.0  0.93215  0.18074  0.67404  1.0000
  O   O935      1.0  0.18331  0.22722  0.57703  1.0000
  H   H1869     1.0  0.19592  0.23952  0.58005  1.0000
  H   H1870     1.0  0.16757  0.23539  0.58061  1.0000
  O   O936      1.0  0.93276  0.24192  0.77821  1.0000
  H   H1871     1.0  0.92683  0.24642  0.79746  1.0000
  H   H1872     1.0  0.91894  0.24567  0.76527  1.0000
  O   O937      1.0  0.93416  0.54474  0.09305  1.0000
  H   H1873     1.0  0.91989  0.54242  0.10581  1.0000
  H   H1874     1.0  0.92748  0.55333  0.07634  1.0000
  O   O938      1.0  0.65896  0.74925  0.93816  1.0000
  H   H1875     1.0  0.67337  0.74105  0.93000  1.0000
  H   H1876     1.0  0.66237  0.76621  0.93508  1.0000
  O   O939      1.0  0.82803  0.03533  0.26006  1.0000
  H   H1877     1.0  0.82072  0.02916  0.27794  1.0000
  H   H1878     1.0  0.82894  0.05260  0.26303  1.0000
  O   O940      1.0  0.90830  0.15063  0.54529  1.0000
  H   H1879     1.0  0.90062  0.14513  0.52730  1.0000
  H   H1880     1.0  0.91517  0.16631  0.54048  1.0000
  O   O941      1.0  0.89325  0.95725  0.25753  1.0000
  H   H1881     1.0  0.90022  0.97304  0.26147  1.0000
  H   H1882     1.0  0.87561  0.95886  0.26204  1.0000
  O   O942      1.0  0.39232  0.45729  0.06025  1.0000
  H   H1883     1.0  0.39422  0.46291  0.08018  1.0000
  H   H1884     1.0  0.40930  0.45521  0.05326  1.0000
  O   O943      1.0  0.54237  0.42282  0.74551  1.0000
  H   H1885     1.0  0.54916  0.41962  0.72627  1.0000
  H   H1886     1.0  0.55678  0.42259  0.75836  1.0000
  O   O944      1.0  0.77673  0.97044  0.04986  1.0000
  H   H1887     1.0  0.78587  0.98528  0.05315  1.0000
  H   H1888     1.0  0.78673  0.96169  0.03574  1.0000
  O   O945      1.0  0.05245  0.79177  0.46981  1.0000
  H   H1889     1.0  0.04690  0.77959  0.48354  1.0000
  H   H1890     1.0  0.06753  0.78511  0.46126  1.0000
  O   O946      1.0  0.13424  0.26844  0.82500  1.0000
  H   H1891     1.0  0.14490  0.27258  0.84139  1.0000
  H   H1892     1.0  0.13352  0.28303  0.81337  1.0000
  O   O947      1.0  0.47962  0.62475  0.39427  1.0000
  H   H1893     1.0  0.47928  0.64162  0.38880  1.0000
  H   H1894     1.0  0.46220  0.62049  0.39704  1.0000
  O   O948      1.0  0.39068  0.06225  0.29741  1.0000
  H   H1895     1.0  0.37466  0.05473  0.30131  1.0000
  H   H1896     1.0  0.40274  0.04934  0.29956  1.0000
  O   O949      1.0  0.93720  0.02821  0.40472  1.0000
  H   H1897     1.0  0.92057  0.03195  0.39762  1.0000
  H   H1898     1.0  0.94017  0.03986  0.42011  1.0000
  O   O950      1.0  0.54499  0.57374  0.59713  1.0000
  H   H1899     1.0  0.55158  0.57405  0.61685  1.0000
  H   H1900     1.0  0.52720  0.57647  0.59947  1.0000
  O   O951      1.0  0.00514  0.52361  0.90875  1.0000
  H   H1901     1.0  0.99123  0.51639  0.91914  1.0000
  H   H1902     1.0  0.01780  0.52610  0.92361  1.0000
  O   O952      1.0  0.36258  0.91302  0.44612  1.0000
  H   H1903     1.0  0.37168  0.89899  0.45293  1.0000
  H   H1904     1.0  0.36762  0.92584  0.45925  1.0000
  O   O953      1.0  0.81248  0.07274  0.36901  1.0000
  H   H1905     1.0  0.80078  0.06064  0.37586  1.0000
  H   H1906     1.0  0.82856  0.06469  0.36919  1.0000
  O   O954      1.0  0.93884  0.03575  0.01674  1.0000
  H   H1907     1.0  0.92239  0.04206  0.02131  1.0000
  H   H1908     1.0  0.94969  0.04974  0.01703  1.0000
  O   O955      1.0  0.99418  0.67774  0.45596  1.0000
  H   H1909     1.0  0.99578  0.66489  0.44173  1.0000
  H   H1910     1.0  0.98696  0.69104  0.44511  1.0000
  O   O956      1.0  0.20306  0.34334  0.93310  1.0000
  H   H1911     1.0  0.21004  0.35155  0.91628  1.0000
  H   H1912     1.0  0.18511  0.34482  0.93068  1.0000
  O   O957      1.0  0.96600  0.77980  0.42349  1.0000
  H   H1913     1.0  0.96349  0.76288  0.41911  1.0000
  H   H1914     1.0  0.95176  0.78783  0.41471  1.0000
  O   O958      1.0  0.78424  0.12466  0.12570  1.0000
  H   H1915     1.0  0.76797  0.12921  0.11815  1.0000
  H   H1916     1.0  0.79579  0.13580  0.11652  1.0000
  O   O959      1.0  0.75554  0.70979  0.96994  1.0000
  H   H1917     1.0  0.74559  0.69534  0.97245  1.0000
  H   H1918     1.0  0.77253  0.70397  0.96777  1.0000
  O   O960      1.0  0.91589  0.55065  0.68220  1.0000
  H   H1919     1.0  0.90772  0.56588  0.68628  1.0000
  H   H1920     1.0  0.90368  0.53855  0.68767  1.0000
  O   O961      1.0  0.76243  0.44746  0.35363  1.0000
  H   H1921     1.0  0.76765  0.46159  0.36448  1.0000
  H   H1922     1.0  0.74445  0.44916  0.35182  1.0000
  O   O962      1.0  0.76648  0.68082  0.88042  1.0000
  H   H1923     1.0  0.77734  0.67357  0.89493  1.0000
  H   H1924     1.0  0.77417  0.69625  0.87616  1.0000
  O   O963      1.0  0.25058  0.54828  0.53858  1.0000
  H   H1925     1.0  0.26337  0.56061  0.54003  1.0000
  H   H1926     1.0  0.23824  0.55501  0.52539  1.0000
  O   O964      1.0  0.01182  0.88972  0.67450  1.0000
  H   H1927     1.0  0.01246  0.88509  0.69491  1.0000
  H   H1928     1.0  0.01629  0.87519  0.66396  1.0000
  O   O965      1.0  0.54229  0.25325  0.28211  1.0000
  H   H1929     1.0  0.54317  0.26810  0.29322  1.0000
  H   H1930     1.0  0.55681  0.24413  0.28834  1.0000
  O   O966      1.0  0.81193  0.84545  0.35557  1.0000
  H   H1931     1.0  0.81854  0.83417  0.34137  1.0000
  H   H1932     1.0  0.82659  0.85191  0.36527  1.0000
  O   O967      1.0  0.44615  0.86694  0.92416  1.0000
  H   H1933     1.0  0.45445  0.88047  0.93339  1.0000
  H   H1934     1.0  0.42878  0.86851  0.92990  1.0000
  O   O968      1.0  0.90163  0.60442  0.02105  1.0000
  H   H1935     1.0  0.90748  0.59749  0.03924  1.0000
  H   H1936     1.0  0.88607  0.59609  0.01702  1.0000
  O   O969      1.0  0.74262  0.89748  0.02106  1.0000
  H   H1937     1.0  0.73665  0.88153  0.02614  1.0000
  H   H1938     1.0  0.75743  0.89971  0.03297  1.0000
  O   O970      1.0  0.67117  0.24272  0.72102  1.0000
  H   H1939     1.0  0.67741  0.25560  0.73333  1.0000
  H   H1940     1.0  0.66115  0.25082  0.70636  1.0000
  O   O971      1.0  0.12759  0.78193  0.22519  1.0000
  H   H1941     1.0  0.12409  0.76545  0.21949  1.0000
  H   H1942     1.0  0.12259  0.78276  0.24553  1.0000
  O   O972      1.0  0.08108  0.75816  0.86014  1.0000
  H   H1943     1.0  0.08087  0.74288  0.87042  1.0000
  H   H1944     1.0  0.09558  0.76651  0.86783  1.0000
  O   O973      1.0  0.12999  0.59412  0.23004  1.0000
  H   H1945     1.0  0.12986  0.61144  0.23277  1.0000
  H   H1946     1.0  0.11254  0.58986  0.22742  1.0000
  O   O974      1.0  0.92469  0.32069  0.94269  1.0000
  H   H1947     1.0  0.93413  0.30629  0.93797  1.0000
  H   H1948     1.0  0.93295  0.32721  0.95981  1.0000
  O   O975      1.0  0.00628  0.05026  0.79540  1.0000
  H   H1949     1.0  0.01007  0.04628  0.81554  1.0000
  H   H1950     1.0  0.98832  0.05264  0.79513  1.0000
  O   O976      1.0  0.12650  0.62635  0.62536  1.0000
  H   H1951     1.0  0.12549  0.61146  0.63638  1.0000
  H   H1952     1.0  0.14001  0.63524  0.63450  1.0000
  O   O977      1.0  0.70832  0.45251  0.00802  1.0000
  H   H1953     1.0  0.72436  0.45232  0.01789  1.0000
  H   H1954     1.0  0.70001  0.43798  0.01465  1.0000
  O   O978      1.0  0.14730  0.10816  0.82571  1.0000
  H   H1955     1.0  0.13104  0.10196  0.83128  1.0000
  H   H1956     1.0  0.14976  0.10243  0.80591  1.0000
  O   O979      1.0  0.09000  0.59538  0.57466  1.0000
  H   H1957     1.0  0.09237  0.58339  0.55951  1.0000
  H   H1958     1.0  0.08838  0.58611  0.59252  1.0000
  O   O980      1.0  0.44312  0.62368  0.33271  1.0000
  H   H1959     1.0  0.44739  0.62579  0.35313  1.0000
  H   H1960     1.0  0.42717  0.61537  0.33301  1.0000
  O   O981      1.0  0.66746  0.40651  0.87177  1.0000
  H   H1961     1.0  0.67046  0.42344  0.87562  1.0000
  H   H1962     1.0  0.67097  0.39856  0.89018  1.0000
  O   O982      1.0  0.82973  0.29221  0.91370  1.0000
  H   H1963     1.0  0.81228  0.29657  0.91594  1.0000
  H   H1964     1.0  0.83113  0.28686  0.89361  1.0000
  O   O983      1.0  0.50930  0.79138  0.34414  1.0000
  H   H1965     1.0  0.49901  0.78959  0.36144  1.0000
  H   H1966     1.0  0.50219  0.78019  0.33016  1.0000
  O   O984      1.0  0.65523  0.07350  0.64403  1.0000
  H   H1967     1.0  0.64745  0.08504  0.63097  1.0000
  H   H1968     1.0  0.66639  0.06430  0.63161  1.0000
  O   O985      1.0  0.92795  0.68327  0.04117  1.0000
  H   H1969     1.0  0.91283  0.68266  0.02951  1.0000
  H   H1970     1.0  0.94135  0.68464  0.02700  1.0000
  O   O986      1.0  0.69404  0.25758  0.27558  1.0000
  H   H1971     1.0  0.71016  0.26476  0.27984  1.0000
  H   H1972     1.0  0.68397  0.27082  0.26832  1.0000
  O   O987      1.0  0.15151  0.91284  0.18202  1.0000
  H   H1973     1.0  0.14715  0.90181  0.19762  1.0000
  H   H1974     1.0  0.16679  0.90630  0.17384  1.0000
  O   O988      1.0  0.10207  0.14306  0.38833  1.0000
  H   H1975     1.0  0.10348  0.15978  0.39421  1.0000
  H   H1976     1.0  0.08787  0.13698  0.39924  1.0000
  O   O989      1.0  0.64097  0.62993  0.12337  1.0000
  H   H1977     1.0  0.65183  0.61633  0.11943  1.0000
  H   H1978     1.0  0.64000  0.63068  0.14450  1.0000
  O   O990      1.0  0.92677  0.05213  0.63030  1.0000
  H   H1979     1.0  0.93438  0.05539  0.61148  1.0000
  H   H1980     1.0  0.93969  0.05603  0.64439  1.0000
  O   O991      1.0  0.27450  0.01594  0.20281  1.0000
  H   H1981     1.0  0.26869  0.02222  0.18425  1.0000
  H   H1982     1.0  0.29207  0.01250  0.19966  1.0000
  O   O992      1.0  0.21959  0.44705  0.91358  1.0000
  H   H1983     1.0  0.21420  0.43214  0.92265  1.0000
  H   H1984     1.0  0.23764  0.44696  0.91559  1.0000
  O   O993      1.0  0.58736  0.93222  0.05446  1.0000
  H   H1985     1.0  0.57240  0.92462  0.04684  1.0000
  H   H1986     1.0  0.58750  0.92800  0.07501  1.0000
  O   O994      1.0  0.44354  0.70582  0.26328  1.0000
  H   H1987     1.0  0.42918  0.69607  0.25801  1.0000
  H   H1988     1.0  0.43848  0.71408  0.28098  1.0000
  O   O995      1.0  0.78077  0.20914  0.16351  1.0000
  H   H1989     1.0  0.79151  0.19699  0.17211  1.0000
  H   H1990     1.0  0.79221  0.22086  0.15526  1.0000
  O   O996      1.0  0.34917  0.60571  0.61454  1.0000
  H   H1991     1.0  0.33622  0.61711  0.61990  1.0000
  H   H1992     1.0  0.35224  0.59657  0.63223  1.0000
  O   O997      1.0  0.11794  0.49548  0.91152  1.0000
  H   H1993     1.0  0.12439  0.48372  0.89780  1.0000
  H   H1994     1.0  0.11132  0.50827  0.89935  1.0000
  O   O998      1.0  0.59439  0.64178  0.14411  1.0000
  H   H1995     1.0  0.58169  0.62980  0.14832  1.0000
  H   H1996     1.0  0.60707  0.63309  0.13325  1.0000
  O   O999      1.0  0.90965  0.44105  0.82812  1.0000
  H   H1997     1.0  0.91356  0.42739  0.81573  1.0000
  H   H1998     1.0  0.90235  0.45282  0.81499  1.0000
  O   O1000     1.0  0.27715  0.76441  0.66496  1.0000
  H   H1999     1.0  0.27188  0.76198  0.68502  1.0000
  H   H2000     1.0  0.26193  0.76865  0.65466  1.0000
  O   O1001     1.0  0.74984  0.57113  0.12359  1.0000
  H   H2001     1.0  0.74687  0.55717  0.11134  1.0000
  H   H2002     1.0  0.74946  0.56488  0.14337  1.0000
  O   O1002     1.0  0.81606  0.15074  0.94825  1.0000
  H   H2003     1.0  0.80166  0.14459  0.95874  1.0000
  H   H2004     1.0  0.82314  0.16280  0.96116  1.0000
  O   O1003     1.0  0.16577  0.31776  0.81097  1.0000
  H   H2005     1.0  0.15435  0.32902  0.82016  1.0000
  H   H2006     1.0  0.17865  0.31503  0.82550  1.0000
  O   O1004     1.0  0.62137  0.89521  0.00518  1.0000
  H   H2007     1.0  0.61970  0.91243  0.00219  1.0000
  H   H2008     1.0  0.60738  0.88827  0.99465  1.0000
  O   O1005     1.0  0.65361  0.37896  0.30712  1.0000
  H   H2009     1.0  0.63714  0.38602  0.30929  1.0000
  H   H2010     1.0  0.65908  0.37581  0.32695  1.0000
  O   O1006     1.0  0.89749  0.82537  0.38698  1.0000
  H   H2011     1.0  0.87974  0.82653  0.38292  1.0000
  H   H2012     1.0  0.89891  0.81210  0.40065  1.0000
  O   O1007     1.0  0.55625  0.06489  0.05111  1.0000
  H   H2013     1.0  0.57258  0.07049  0.05731  1.0000
  H   H2014     1.0  0.54453  0.07425  0.06262  1.0000
  O   O1008     1.0  0.24171  0.99056  0.15859  1.0000
  H   H2015     1.0  0.25499  0.99814  0.14749  1.0000
  H   H2016     1.0  0.23383  0.00372  0.16905  1.0000
  O   O1009     1.0  0.53441  0.00528  0.77294  1.0000
  H   H2017     1.0  0.52865  0.01372  0.75566  1.0000
  H   H2018     1.0  0.54666  0.99387  0.76569  1.0000
  O   O1010     1.0  0.25080  0.61529  0.08791  1.0000
  H   H2019     1.0  0.23386  0.61757  0.09492  1.0000
  H   H2020     1.0  0.26024  0.62829  0.09677  1.0000
  O   O1011     1.0  0.23276  0.02814  0.90347  1.0000
  H   H2021     1.0  0.24960  0.02392  0.89750  1.0000
  H   H2022     1.0  0.22732  0.01465  0.91534  1.0000
  O   O1012     1.0  0.71442  0.38751  0.02746  1.0000
  H   H2023     1.0  0.72271  0.40278  0.03091  1.0000
  H   H2024     1.0  0.69813  0.38931  0.03650  1.0000
  O   O1013     1.0  0.50943  0.79882  0.86456  1.0000
  H   H2025     1.0  0.50484  0.79945  0.84408  1.0000
  H   H2026     1.0  0.52622  0.79223  0.86461  1.0000
  O   O1014     1.0  0.73904  0.40159  0.68500  1.0000
  H   H2027     1.0  0.73767  0.40951  0.70381  1.0000
  H   H2028     1.0  0.74077  0.41467  0.67110  1.0000
  O   O1015     1.0  0.02547  0.19364  0.33843  1.0000
  H   H2029     1.0  0.03850  0.18375  0.32986  1.0000
  H   H2030     1.0  0.02735  0.20920  0.32907  1.0000
  O   O1016     1.0  0.68612  0.12855  0.05137  1.0000
  H   H2031     1.0  0.68277  0.13689  0.03318  1.0000
  H   H2032     1.0  0.69900  0.11693  0.04649  1.0000
  O   O1017     1.0  0.19421  0.15668  0.23063  1.0000
  H   H2033     1.0  0.19845  0.14723  0.21352  1.0000
  H   H2034     1.0  0.20759  0.16840  0.23221  1.0000
  O   O1018     1.0  0.41139  0.51729  0.36387  1.0000
  H   H2035     1.0  0.40272  0.50708  0.34999  1.0000
  H   H2036     1.0  0.40726  0.51052  0.38280  1.0000
  O   O1019     1.0  0.62954  0.46384  0.93351  1.0000
  H   H2037     1.0  0.64212  0.45528  0.92232  1.0000
  H   H2038     1.0  0.61375  0.45846  0.92539  1.0000
  O   O1020     1.0  0.42929  0.06288  0.04130  1.0000
  H   H2039     1.0  0.43837  0.07304  0.02774  1.0000
  H   H2040     1.0  0.43962  0.06258  0.05870  1.0000
  O   O1021     1.0  0.29883  0.43770  0.48288  1.0000
  H   H2041     1.0  0.29868  0.45084  0.49684  1.0000
  H   H2042     1.0  0.31498  0.43008  0.48560  1.0000
  O   O1022     1.0  0.38928  0.17032  0.61016  1.0000
  H   H2043     1.0  0.40595  0.17082  0.60183  1.0000
  H   H2044     1.0  0.38517  0.18705  0.61390  1.0000
  O   O1023     1.0  0.88319  0.02342  0.84056  1.0000
  H   H2045     1.0  0.86823  0.01989  0.85174  1.0000
  H   H2046     1.0  0.88718  0.00839  0.83082  1.0000
  O   O1024     1.0  0.47647  0.72573  0.99577  1.0000
  H   H2047     1.0  0.48564  0.71541  0.00908  1.0000
  H   H2048     1.0  0.45911  0.72124  0.99853  1.0000
  O   O1025     1.0  0.71991  0.37731  0.09826  1.0000
  H   H2049     1.0  0.73491  0.38430  0.08990  1.0000
  H   H2050     1.0  0.71477  0.38872  0.11313  1.0000
  O   O1026     1.0  0.94022  0.20401  0.15674  1.0000
  H   H2051     1.0  0.93116  0.21614  0.16771  1.0000
  H   H2052     1.0  0.93390  0.18880  0.16409  1.0000
  O   O1027     1.0  0.18244  0.35166  0.20308  1.0000
  H   H2053     1.0  0.18086  0.36384  0.18800  1.0000
  H   H2054     1.0  0.16553  0.34585  0.20606  1.0000
  O   O1028     1.0  0.80971  0.58581  0.86263  1.0000
  H   H2055     1.0  0.80557  0.57336  0.87667  1.0000
  H   H2056     1.0  0.82770  0.58761  0.86421  1.0000
  O   O1029     1.0  0.46641  0.99120  0.39307  1.0000
  H   H2057     1.0  0.47675  0.98244  0.37929  1.0000
  H   H2058     1.0  0.44989  0.99117  0.38435  1.0000
  O   O1030     1.0  0.44879  0.30637  0.03145  1.0000
  H   H2059     1.0  0.45096  0.31800  0.04704  1.0000
  H   H2060     1.0  0.45109  0.31560  0.01367  1.0000
  O   O1031     1.0  0.49564  0.72155  0.46189  1.0000
  H   H2061     1.0  0.51032  0.71402  0.45344  1.0000
  H   H2062     1.0  0.49281  0.71280  0.47992  1.0000
  O   O1032     1.0  0.73483  0.68804  0.20875  1.0000
  H   H2063     1.0  0.74902  0.69174  0.19634  1.0000
  H   H2064     1.0  0.72092  0.68628  0.19533  1.0000
  O   O1033     1.0  0.68885  0.85810  0.64683  1.0000
  H   H2065     1.0  0.69579  0.86729  0.63075  1.0000
  H   H2066     1.0  0.69571  0.84205  0.64438  1.0000
  O   O1034     1.0  0.81552  0.06111  0.13289  1.0000
  H   H2067     1.0  0.81972  0.04454  0.12835  1.0000
  H   H2068     1.0  0.83012  0.06729  0.14296  1.0000
  O   O1035     1.0  0.03963  0.41171  0.50987  1.0000
  H   H2069     1.0  0.04625  0.39624  0.50381  1.0000
  H   H2070     1.0  0.05328  0.42291  0.50676  1.0000
  O   O1036     1.0  0.17243  0.45328  0.83869  1.0000
  H   H2071     1.0  0.15669  0.44794  0.84696  1.0000
  H   H2072     1.0  0.16777  0.46159  0.82088  1.0000
  O   O1037     1.0  0.99762  0.99428  0.04380  1.0000
  H   H2073     1.0  0.00682  0.00933  0.04355  1.0000
  H   H2074     1.0  0.00652  0.98430  0.05774  1.0000
  O   O1038     1.0  0.02043  0.42763  0.11516  1.0000
  H   H2075     1.0  0.03241  0.43490  0.10192  1.0000
  H   H2076     1.0  0.00518  0.43674  0.11217  1.0000
  O   O1039     1.0  0.13014  0.72858  0.75978  1.0000
  H   H2077     1.0  0.11723  0.74074  0.75784  1.0000
  H   H2078     1.0  0.13349  0.72784  0.78058  1.0000
  O   O1040     1.0  0.76543  0.73887  0.11317  1.0000
  H   H2079     1.0  0.77574  0.72812  0.10161  1.0000
  H   H2080     1.0  0.77559  0.75320  0.11566  1.0000
  O   O1041     1.0  0.72256  0.97492  0.21256  1.0000
  H   H2081     1.0  0.73672  0.98529  0.21663  1.0000
  H   H2082     1.0  0.72880  0.95874  0.21583  1.0000
  O   O1042     1.0  0.31473  0.46586  0.81167  1.0000
  H   H2083     1.0  0.32983  0.45624  0.81271  1.0000
  H   H2084     1.0  0.31922  0.47946  0.79944  1.0000
  O   O1043     1.0  0.12796  0.81561  0.74951  1.0000
  H   H2085     1.0  0.14074  0.80355  0.75298  1.0000
  H   H2086     1.0  0.13505  0.83042  0.75708  1.0000
  O   O1044     1.0  0.03002  0.63060  0.28232  1.0000
  H   H2087     1.0  0.01854  0.63287  0.29848  1.0000
  H   H2088     1.0  0.02070  0.62108  0.26830  1.0000
  O   O1045     1.0  0.05720  0.45823  0.96217  1.0000
  H   H2089     1.0  0.06102  0.46889  0.97835  1.0000
  H   H2090     1.0  0.03923  0.45948  0.95979  1.0000
  O   O1046     1.0  0.47153  0.46290  0.71966  1.0000
  H   H2091     1.0  0.47088  0.46304  0.69850  1.0000
  H   H2092     1.0  0.46259  0.47733  0.72548  1.0000
  O   O1047     1.0  0.92406  0.38650  0.30715  1.0000
  H   H2093     1.0  0.92343  0.37573  0.29049  1.0000
  H   H2094     1.0  0.92362  0.37591  0.32398  1.0000
  O   O1048     1.0  0.83022  0.02011  0.59211  1.0000
  H   H2095     1.0  0.84400  0.01890  0.57843  1.0000
  H   H2096     1.0  0.81750  0.02912  0.58169  1.0000
  O   O1049     1.0  0.77920  0.45514  0.91097  1.0000
  H   H2097     1.0  0.77054  0.45477  0.92957  1.0000
  H   H2098     1.0  0.79239  0.44327  0.91295  1.0000
  O   O1050     1.0  0.78192  0.30394  0.84507  1.0000
  H   H2099     1.0  0.79543  0.30932  0.85760  1.0000
  H   H2100     1.0  0.77655  0.28880  0.85354  1.0000
  O   O1051     1.0  0.71546  0.52908  0.04480  1.0000
  H   H2101     1.0  0.71281  0.51180  0.04492  1.0000
  H   H2102     1.0  0.71977  0.53299  0.06482  1.0000
  O   O1052     1.0  0.03681  0.32410  0.35539  1.0000
  H   H2103     1.0  0.02741  0.30971  0.35056  1.0000
  H   H2104     1.0  0.04103  0.32218  0.37585  1.0000
  O   O1053     1.0  0.84353  0.77834  0.89633  1.0000
  H   H2105     1.0  0.83883  0.76626  0.91060  1.0000
  H   H2106     1.0  0.84662  0.76930  0.87858  1.0000
  O   O1054     1.0  0.88780  0.55827  0.61028  1.0000
  H   H2107     1.0  0.87621  0.54852  0.62149  1.0000
  H   H2108     1.0  0.87725  0.56941  0.59961  1.0000
  O   O1055     1.0  0.59569  0.22564  0.39753  1.0000
  H   H2109     1.0  0.61215  0.22912  0.40532  1.0000
  H   H2110     1.0  0.59870  0.22117  0.37736  1.0000
  O   O1056     1.0  0.96654  0.02155  0.26647  1.0000
  H   H2111     1.0  0.95770  0.03074  0.28123  1.0000
  H   H2112     1.0  0.96848  0.03265  0.25028  1.0000
  O   O1057     1.0  0.89037  0.05700  0.99316  1.0000
  H   H2113     1.0  0.88564  0.06586  0.01055  1.0000
  H   H2114     1.0  0.90707  0.06271  0.98863  1.0000
  O   O1058     1.0  0.76678  0.58869  0.21722  1.0000
  H   H2115     1.0  0.75919  0.57293  0.21496  1.0000
  H   H2116     1.0  0.75670  0.59660  0.23198  1.0000
  O   O1059     1.0  0.52271  0.63922  0.11418  1.0000
  H   H2117     1.0  0.52405  0.63234  0.09477  1.0000
  H   H2118     1.0  0.50920  0.63034  0.12332  1.0000
  O   O1060     1.0  0.54774  0.12927  0.95644  1.0000
  H   H2119     1.0  0.56060  0.11697  0.95587  1.0000
  H   H2120     1.0  0.53967  0.12706  0.97521  1.0000
  O   O1061     1.0  0.21710  0.46870  0.15843  1.0000
  H   H2121     1.0  0.22077  0.47665  0.17679  1.0000
  H   H2122     1.0  0.20444  0.45686  0.16329  1.0000
  O   O1062     1.0  0.40276  0.85030  0.86142  1.0000
  H   H2123     1.0  0.39873  0.85826  0.84316  1.0000
  H   H2124     1.0  0.40202  0.83325  0.85687  1.0000
  O   O1063     1.0  0.84404  0.43091  0.06066  1.0000
  H   H2125     1.0  0.85948  0.43128  0.07175  1.0000
  H   H2126     1.0  0.83107  0.43388  0.07502  1.0000
  O   O1064     1.0  0.47696  0.43128  0.96668  1.0000
  H   H2127     1.0  0.45982  0.43424  0.97261  1.0000
  H   H2128     1.0  0.48345  0.44707  0.96170  1.0000
  O   O1065     1.0  0.38644  0.43644  0.99305  1.0000
  H   H2129     1.0  0.40145  0.44608  0.99513  1.0000
  H   H2130     1.0  0.37393  0.44763  0.98591  1.0000
  O   O1066     1.0  0.44191  0.61145  0.00847  1.0000
  H   H2131     1.0  0.44023  0.59436  0.01240  1.0000
  H   H2132     1.0  0.45644  0.61263  0.99587  1.0000
  O   O1067     1.0  0.56973  0.01822  0.40235  1.0000
  H   H2133     1.0  0.55629  0.02989  0.40097  1.0000
  H   H2134     1.0  0.58173  0.02332  0.38773  1.0000
  O   O1068     1.0  0.93060  0.15834  0.60080  1.0000
  H   H2135     1.0  0.93622  0.17159  0.58866  1.0000
  H   H2136     1.0  0.93302  0.16399  0.62064  1.0000
  O   O1069     1.0  0.00571  0.93260  0.71155  1.0000
  H   H2137     1.0  0.98972  0.92650  0.71828  1.0000
  H   H2138     1.0  0.00896  0.94647  0.72385  1.0000
  O   O1070     1.0  0.20943  0.54163  0.87070  1.0000
  H   H2139     1.0  0.21022  0.54794  0.89042  1.0000
  H   H2140     1.0  0.19402  0.54812  0.86278  1.0000
  O   O1071     1.0  0.47313  0.30754  0.59147  1.0000
  H   H2141     1.0  0.46365  0.31980  0.60169  1.0000
  H   H2142     1.0  0.48241  0.31632  0.57672  1.0000
  O   O1072     1.0  0.90184  0.80309  0.08772  1.0000
  H   H2143     1.0  0.90838  0.80656  0.06842  1.0000
  H   H2144     1.0  0.91059  0.81416  0.10052  1.0000
  O   O1073     1.0  0.44945  0.92941  0.88878  1.0000
  H   H2145     1.0  0.43833  0.91989  0.90089  1.0000
  H   H2146     1.0  0.45957  0.91762  0.87856  1.0000
  O   O1074     1.0  0.62691  0.32832  0.26274  1.0000
  H   H2147     1.0  0.63738  0.31533  0.25561  1.0000
  H   H2148     1.0  0.63485  0.33344  0.28074  1.0000
  O   O1075     1.0  0.32217  0.12527  0.60399  1.0000
  H   H2149     1.0  0.32475  0.11036  0.59337  1.0000
  H   H2150     1.0  0.31256  0.13528  0.59075  1.0000
  O   O1076     1.0  0.37727  0.79125  0.95382  1.0000
  H   H2151     1.0  0.38643  0.79323  0.93570  1.0000
  H   H2152     1.0  0.38978  0.78613  0.96783  1.0000
  O   O1077     1.0  0.04642  0.13692  0.85762  1.0000
  H   H2153     1.0  0.03825  0.13044  0.87482  1.0000
  H   H2154     1.0  0.03478  0.13380  0.84182  1.0000
  O   O1078     1.0  0.96585  0.76199  0.66606  1.0000
  H   H2155     1.0  0.96627  0.77337  0.68212  1.0000
  H   H2156     1.0  0.94981  0.75399  0.66796  1.0000
  O   O1079     1.0  0.68341  0.37645  0.14173  1.0000
  H   H2157     1.0  0.68295  0.39387  0.14009  1.0000
  H   H2158     1.0  0.66822  0.37235  0.15217  1.0000
  O   O1080     1.0  0.46080  0.57960  0.79937  1.0000
  H   H2159     1.0  0.47673  0.58395  0.79071  1.0000
  H   H2160     1.0  0.45053  0.59388  0.79712  1.0000
  O   O1081     1.0  0.63038  0.14688  0.43753  1.0000
  H   H2161     1.0  0.63930  0.13281  0.44452  1.0000
  H   H2162     1.0  0.63442  0.14773  0.41691  1.0000
  O   O1082     1.0  0.95924  0.81612  0.62838  1.0000
  H   H2163     1.0  0.96697  0.83128  0.63377  1.0000
  H   H2164     1.0  0.95696  0.80771  0.64675  1.0000
  O   O1083     1.0  0.67355  0.07644  0.45735  1.0000
  H   H2165     1.0  0.68690  0.06483  0.46004  1.0000
  H   H2166     1.0  0.68203  0.09121  0.45187  1.0000
  O   O1084     1.0  0.94660  0.28050  0.46817  1.0000
  H   H2167     1.0  0.93805  0.26520  0.46606  1.0000
  H   H2168     1.0  0.95009  0.28175  0.48890  1.0000
  O   O1085     1.0  0.04851  0.58017  0.74504  1.0000
  H   H2169     1.0  0.06500  0.58718  0.74284  1.0000
  H   H2170     1.0  0.03710  0.59348  0.74183  1.0000
  O   O1086     1.0  0.92341  0.16416  0.31937  1.0000
  H   H2171     1.0  0.93394  0.17833  0.32081  1.0000
  H   H2172     1.0  0.92814  0.15677  0.30099  1.0000
  O   O1087     1.0  0.44457  0.19808  0.00232  1.0000
  H   H2173     1.0  0.42695  0.19823  0.99729  1.0000
  H   H2174     1.0  0.44748  0.18207  0.01007  1.0000
  O   O1088     1.0  0.64946  0.25442  0.45295  1.0000
  H   H2175     1.0  0.63353  0.25118  0.46229  1.0000
  H   H2176     1.0  0.64742  0.27020  0.44420  1.0000
  O   O1089     1.0  0.27576  0.71510  0.45014  1.0000
  H   H2177     1.0  0.28458  0.71598  0.43166  1.0000
  H   H2178     1.0  0.27203  0.73173  0.45497  1.0000
  O   O1090     1.0  0.64409  0.19071  0.45561  1.0000
  H   H2179     1.0  0.65822  0.18193  0.46353  1.0000
  H   H2180     1.0  0.64764  0.19201  0.43490  1.0000
  O   O1091     1.0  0.92680  0.90511  0.85839  1.0000
  H   H2181     1.0  0.94191  0.89552  0.85983  1.0000
  H   H2182     1.0  0.92058  0.90199  0.83886  1.0000
  O   O1092     1.0  0.26159  0.11815  0.33332  1.0000
  H   H2183     1.0  0.26378  0.11690  0.35429  1.0000
  H   H2184     1.0  0.26137  0.10160  0.32655  1.0000
  O   O1093     1.0  0.32970  0.49356  0.91092  1.0000
  H   H2185     1.0  0.33603  0.50759  0.90070  1.0000
  H   H2186     1.0  0.33364  0.48014  0.89817  1.0000
  O   O1094     1.0  0.53560  0.73118  0.77510  1.0000
  H   H2187     1.0  0.54165  0.73968  0.75800  1.0000
  H   H2188     1.0  0.52603  0.74312  0.78579  1.0000
  O   O1095     1.0  0.68904  0.21638  0.45784  1.0000
  H   H2189     1.0  0.67182  0.21102  0.45644  1.0000
  H   H2190     1.0  0.69190  0.22529  0.43993  1.0000
  O   O1096     1.0  0.36708  0.39821  0.53917  1.0000
  H   H2191     1.0  0.35570  0.41169  0.54137  1.0000
  H   H2192     1.0  0.35688  0.38546  0.53094  1.0000
  O   O1097     1.0  0.15294  0.22444  0.19496  1.0000
  H   H2193     1.0  0.17073  0.22705  0.19238  1.0000
  H   H2194     1.0  0.14599  0.24049  0.19698  1.0000
  O   O1098     1.0  0.16123  0.36069  0.64829  1.0000
  H   H2195     1.0  0.16577  0.37498  0.65925  1.0000
  H   H2196     1.0  0.16919  0.36282  0.62944  1.0000
  O   O1099     1.0  0.61465  0.86966  0.27644  1.0000
  H   H2197     1.0  0.60999  0.88087  0.26113  1.0000
  H   H2198     1.0  0.60173  0.87150  0.29113  1.0000
  O   O1100     1.0  0.26183  0.11337  0.41889  1.0000
  H   H2199     1.0  0.27073  0.11394  0.43732  1.0000
  H   H2200     1.0  0.27376  0.11932  0.40466  1.0000
  O   O1101     1.0  0.88971  0.90598  0.26904  1.0000
  H   H2201     1.0  0.90373  0.89741  0.27753  1.0000
  H   H2202     1.0  0.87710  0.90601  0.28426  1.0000
  O   O1102     1.0  0.55479  0.24587  0.08257  1.0000
  H   H2203     1.0  0.55698  0.26175  0.09104  1.0000
  H   H2204     1.0  0.55632  0.24843  0.06170  1.0000
  O   O1103     1.0  0.53513  0.93412  0.87246  1.0000
  H   H2205     1.0  0.53925  0.93550  0.89302  1.0000
  H   H2206     1.0  0.52720  0.91848  0.87069  1.0000
  O   O1104     1.0  0.67496  0.96598  0.40768  1.0000
  H   H2207     1.0  0.66919  0.94960  0.40470  1.0000
  H   H2208     1.0  0.68113  0.96617  0.42759  1.0000
  O   O1105     1.0  0.93705  0.73633  0.72816  1.0000
  H   H2209     1.0  0.92829  0.73962  0.74627  1.0000
  H   H2210     1.0  0.93168  0.74901  0.71501  1.0000
  O   O1106     1.0  0.10279  0.48399  0.06902  1.0000
  H   H2211     1.0  0.09343  0.47352  0.05607  1.0000
  H   H2212     1.0  0.11845  0.47559  0.07223  1.0000
  O   O1107     1.0  0.32332  0.22076  0.79332  1.0000
  H   H2213     1.0  0.32115  0.21783  0.81405  1.0000
  H   H2214     1.0  0.30962  0.23137  0.78815  1.0000
  O   O1108     1.0  0.26718  0.69007  0.24305  1.0000
  H   H2215     1.0  0.25255  0.68477  0.25380  1.0000
  H   H2216     1.0  0.26295  0.68728  0.22273  1.0000
  O   O1109     1.0  0.49724  0.30490  0.13856  1.0000
  H   H2217     1.0  0.49516  0.31671  0.12315  1.0000
  H   H2218     1.0  0.49359  0.31365  0.15639  1.0000
  O   O1110     1.0  0.05676  0.55289  0.30427  1.0000
  H   H2219     1.0  0.05832  0.56444  0.32005  1.0000
  H   H2220     1.0  0.05814  0.53732  0.31372  1.0000
  O   O1111     1.0  0.87246  0.55030  0.24060  1.0000
  H   H2221     1.0  0.86449  0.54591  0.25886  1.0000
  H   H2222     1.0  0.86087  0.56142  0.23147  1.0000
  O   O1112     1.0  0.66955  0.55821  0.03580  1.0000
  H   H2223     1.0  0.67629  0.54808  0.05116  1.0000
  H   H2224     1.0  0.66118  0.57119  0.04607  1.0000
  O   O1113     1.0  0.46928  0.07119  0.68166  1.0000
  H   H2225     1.0  0.47429  0.06785  0.70161  1.0000
  H   H2226     1.0  0.46484  0.08812  0.68171  1.0000
  O   O1114     1.0  0.80554  0.58682  0.16651  1.0000
  H   H2227     1.0  0.82196  0.58516  0.15774  1.0000
  H   H2228     1.0  0.79674  0.57227  0.16091  1.0000
  O   O1115     1.0  0.17996  0.81619  0.61522  1.0000
  H   H2229     1.0  0.18601  0.81096  0.63415  1.0000
  H   H2230     1.0  0.19482  0.81698  0.60312  1.0000
  O   O1116     1.0  0.22128  0.09687  0.70282  1.0000
  H   H2231     1.0  0.21338  0.10360  0.68560  1.0000
  H   H2232     1.0  0.23049  0.08304  0.69564  1.0000
  O   O1117     1.0  0.00912  0.68007  0.29519  1.0000
  H   H2233     1.0  0.00646  0.66537  0.28418  1.0000
  H   H2234     1.0  0.99755  0.69155  0.28670  1.0000
  O   O1118     1.0  0.84910  0.71595  0.89911  1.0000
  H   H2235     1.0  0.85289  0.70333  0.88515  1.0000
  H   H2236     1.0  0.84698  0.73030  0.88730  1.0000
  O   O1119     1.0  0.60149  0.16391  0.62137  1.0000
  H   H2237     1.0  0.61632  0.17360  0.61818  1.0000
  H   H2238     1.0  0.60063  0.16193  0.64239  1.0000
  O   O1120     1.0  0.51242  0.18151  0.16816  1.0000
  H   H2239     1.0  0.50888  0.16460  0.17146  1.0000
  H   H2240     1.0  0.50817  0.18416  0.14783  1.0000
  O   O1121     1.0  0.95755  0.77287  0.95189  1.0000
  H   H2241     1.0  0.94123  0.76718  0.94576  1.0000
  H   H2242     1.0  0.96908  0.76061  0.94507  1.0000
  O   O1122     1.0  0.01361  0.02734  0.38715  1.0000
  H   H2243     1.0  0.02202  0.01188  0.38638  1.0000
  H   H2244     1.0  0.00960  0.02957  0.40762  1.0000
  O   O1123     1.0  0.44928  0.25998  0.72875  1.0000
  H   H2245     1.0  0.46666  0.25505  0.72979  1.0000
  H   H2246     1.0  0.44002  0.24624  0.73608  1.0000
  O   O1124     1.0  0.79528  0.62760  0.61278  1.0000
  H   H2247     1.0  0.79704  0.63865  0.62905  1.0000
  H   H2248     1.0  0.78387  0.61532  0.61982  1.0000
  O   O1125     1.0  0.43187  0.21368  0.88164  1.0000
  H   H2249     1.0  0.44698  0.22051  0.88991  1.0000
  H   H2250     1.0  0.42327  0.22730  0.87297  1.0000
  O   O1126     1.0  0.35886  0.04760  0.86741  1.0000
  H   H2251     1.0  0.36705  0.05993  0.87898  1.0000
  H   H2252     1.0  0.34540  0.04182  0.87974  1.0000
  O   O1127     1.0  0.47563  0.63508  0.80770  1.0000
  H   H2253     1.0  0.48009  0.64512  0.82424  1.0000
  H   H2254     1.0  0.48336  0.61965  0.81183  1.0000
  O   O1128     1.0  0.24432  0.43107  0.10790  1.0000
  H   H2255     1.0  0.26210  0.43265  0.10423  1.0000
  H   H2256     1.0  0.23683  0.43042  0.08863  1.0000
  O   O1129     1.0  0.15015  0.45620  0.71705  1.0000
  H   H2257     1.0  0.15135  0.44022  0.70860  1.0000
  H   H2258     1.0  0.16702  0.45990  0.72336  1.0000
  O   O1130     1.0  0.13145  0.02139  0.91104  1.0000
  H   H2259     1.0  0.14266  0.00960  0.91956  1.0000
  H   H2260     1.0  0.11573  0.01900  0.92120  1.0000
  O   O1131     1.0  0.06723  0.28607  0.05212  1.0000
  H   H2261     1.0  0.06643  0.29365  0.03306  1.0000
  H   H2262     1.0  0.07384  0.29847  0.06489  1.0000
  O   O1132     1.0  0.72375  0.90369  0.89849  1.0000
  H   H2263     1.0  0.71537  0.91280  0.91368  1.0000
  H   H2264     1.0  0.73427  0.91539  0.88869  1.0000
  O   O1133     1.0  0.70248  0.25906  0.78600  1.0000
  H   H2265     1.0  0.68450  0.25787  0.78831  1.0000
  H   H2266     1.0  0.70539  0.27578  0.78086  1.0000
  O   O1134     1.0  0.47537  0.68209  0.62075  1.0000
  H   H2267     1.0  0.46345  0.67947  0.63638  1.0000
  H   H2268     1.0  0.48734  0.66909  0.62280  1.0000
  O   O1135     1.0  0.15393  0.53059  0.98795  1.0000
  H   H2269     1.0  0.15145  0.54781  0.98580  1.0000
  H   H2270     1.0  0.15833  0.52846  0.00833  1.0000
  O   O1136     1.0  0.36724  0.03817  0.24176  1.0000
  H   H2271     1.0  0.36174  0.02849  0.25818  1.0000
  H   H2272     1.0  0.36023  0.03019  0.22479  1.0000
  O   O1137     1.0  0.05642  0.11385  0.00544  1.0000
  H   H2273     1.0  0.07030  0.11690  0.01855  1.0000
  H   H2274     1.0  0.05358  0.12914  0.99573  1.0000
  O   O1138     1.0  0.11600  0.13683  0.49721  1.0000
  H   H2275     1.0  0.11418  0.14688  0.51439  1.0000
  H   H2276     1.0  0.09900  0.13315  0.49137  1.0000
  O   O1139     1.0  0.22311  0.22683  0.23463  1.0000
  H   H2277     1.0  0.22432  0.20982  0.23925  1.0000
  H   H2278     1.0  0.20655  0.22869  0.22632  1.0000
  O   O1140     1.0  0.69048  0.12645  0.66034  1.0000
  H   H2279     1.0  0.68164  0.12855  0.64202  1.0000
  H   H2280     1.0  0.67753  0.12722  0.67514  1.0000
  O   O1141     1.0  0.96109  0.43471  0.77878  1.0000
  H   H2281     1.0  0.94717  0.42356  0.77766  1.0000
  H   H2282     1.0  0.97576  0.42478  0.77557  1.0000
  O   O1142     1.0  0.04021  0.31901  0.54706  1.0000
  H   H2283     1.0  0.02911  0.32995  0.53685  1.0000
  H   H2284     1.0  0.04298  0.32657  0.56587  1.0000
  O   O1143     1.0  0.70382  0.79314  0.94740  1.0000
  H   H2285     1.0  0.69930  0.77675  0.94231  1.0000
  H   H2286     1.0  0.71866  0.79147  0.95940  1.0000
  O   O1144     1.0  0.73451  0.10362  0.20116  1.0000
  H   H2287     1.0  0.74006  0.09957  0.18161  1.0000
  H   H2288     1.0  0.73234  0.12096  0.20080  1.0000
  O   O1145     1.0  0.50507  0.86171  0.14477  1.0000
  H   H2289     1.0  0.50369  0.86082  0.12368  1.0000
  H   H2290     1.0  0.50954  0.84551  0.15071  1.0000
  O   O1146     1.0  0.55332  0.05415  0.15519  1.0000
  H   H2291     1.0  0.55201  0.06041  0.13548  1.0000
  H   H2292     1.0  0.53614  0.05224  0.16157  1.0000
  O   O1147     1.0  0.38925  0.82176  0.72710  1.0000
  H   H2293     1.0  0.38871  0.80757  0.73944  1.0000
  H   H2294     1.0  0.38249  0.83454  0.73919  1.0000
  O   O1148     1.0  0.90443  0.34659  0.84853  1.0000
  H   H2295     1.0  0.91399  0.34095  0.83188  1.0000
  H   H2296     1.0  0.89678  0.36145  0.84188  1.0000
  O   O1149     1.0  0.31937  0.24833  0.65529  1.0000
  H   H2297     1.0  0.30698  0.24190  0.64193  1.0000
  H   H2298     1.0  0.33225  0.25495  0.64272  1.0000
  O   O1150     1.0  0.62669  0.31652  0.94710  1.0000
  H   H2299     1.0  0.63766  0.30843  0.96082  1.0000
  H   H2300     1.0  0.63694  0.31902  0.92989  1.0000
  O   O1151     1.0  0.36288  0.55899  0.59278  1.0000
  H   H2301     1.0  0.37231  0.55296  0.57624  1.0000
  H   H2302     1.0  0.37485  0.56844  0.60382  1.0000
  O   O1152     1.0  0.36755  0.64985  0.78068  1.0000
  H   H2303     1.0  0.36573  0.65863  0.76250  1.0000
  H   H2304     1.0  0.37112  0.66216  0.79512  1.0000
  O   O1153     1.0  0.60876  0.25224  0.49702  1.0000
  H   H2305     1.0  0.60355  0.26320  0.48169  1.0000
  H   H2306     1.0  0.62283  0.26023  0.50623  1.0000
  O   O1154     1.0  0.75939  0.15234  0.05426  1.0000
  H   H2307     1.0  0.75038  0.14444  0.06995  1.0000
  H   H2308     1.0  0.77086  0.14018  0.04708  1.0000
  O   O1155     1.0  0.90689  0.45769  0.20910  1.0000
  H   H2309     1.0  0.91710  0.45310  0.22570  1.0000
  H   H2310     1.0  0.89823  0.44302  0.20364  1.0000
  O   O1156     1.0  0.04230  0.69829  0.34272  1.0000
  H   H2311     1.0  0.05911  0.69236  0.34607  1.0000
  H   H2312     1.0  0.03907  0.70896  0.35906  1.0000
  O   O1157     1.0  0.95988  0.31896  0.17927  1.0000
  H   H2313     1.0  0.97794  0.31801  0.18082  1.0000
  H   H2314     1.0  0.95580  0.30894  0.16258  1.0000
  O   O1158     1.0  0.09547  0.81502  0.52572  1.0000
  H   H2315     1.0  0.09175  0.81657  0.50508  1.0000
  H   H2316     1.0  0.08720  0.80024  0.53158  1.0000
  O   O1159     1.0  0.98107  0.34167  0.64593  1.0000
  H   H2317     1.0  0.98236  0.34456  0.62509  1.0000
  H   H2318     1.0  0.96825  0.32940  0.64774  1.0000
  O   O1160     1.0  0.44107  0.71053  0.08387  1.0000
  H   H2319     1.0  0.43321  0.71488  0.06553  1.0000
  H   H2320     1.0  0.44534  0.69365  0.08162  1.0000
  O   O1161     1.0  0.54041  0.21575  0.03786  1.0000
  H   H2321     1.0  0.55525  0.20577  0.03664  1.0000
  H   H2322     1.0  0.54406  0.22948  0.02547  1.0000
  O   O1162     1.0  0.63845  0.15782  0.55993  1.0000
  H   H2323     1.0  0.64139  0.14628  0.54441  1.0000
  H   H2324     1.0  0.62642  0.16904  0.55180  1.0000
  O   O1163     1.0  0.64094  0.99672  0.03311  1.0000
  H   H2325     1.0  0.65907  0.99672  0.03359  1.0000
  H   H2326     1.0  0.63673  0.00629  0.01609  1.0000
  O   O1164     1.0  0.18291  0.25275  0.37806  1.0000
  H   H2327     1.0  0.18596  0.25789  0.39798  1.0000
  H   H2328     1.0  0.16623  0.24591  0.37849  1.0000
  O   O1165     1.0  0.51848  0.71999  0.70704  1.0000
  H   H2329     1.0  0.51654  0.71536  0.68674  1.0000
  H   H2330     1.0  0.53025  0.73326  0.70659  1.0000
  O   O1166     1.0  0.98319  0.07357  0.88421  1.0000
  H   H2331     1.0  0.96653  0.07872  0.88976  1.0000
  H   H2332     1.0  0.98417  0.07687  0.86345  1.0000
  O   O1167     1.0  0.33230  0.29213  0.32792  1.0000
  H   H2333     1.0  0.34322  0.28353  0.31461  1.0000
  H   H2334     1.0  0.32823  0.28043  0.34291  1.0000
  O   O1168     1.0  0.45831  0.74745  0.75047  1.0000
  H   H2335     1.0  0.45975  0.73275  0.76180  1.0000
  H   H2336     1.0  0.47386  0.74841  0.73965  1.0000
  O   O1169     1.0  0.31160  0.82081  0.97089  1.0000
  H   H2337     1.0  0.30947  0.83259  0.95545  1.0000
  H   H2338     1.0  0.30087  0.80751  0.96529  1.0000
  O   O1170     1.0  0.73197  0.79265  0.29818  1.0000
  H   H2339     1.0  0.72206  0.80720  0.29639  1.0000
  H   H2340     1.0  0.74912  0.79830  0.29891  1.0000
  O   O1171     1.0  0.15095  0.77265  0.11950  1.0000
  H   H2341     1.0  0.16363  0.76740  0.13323  1.0000
  H   H2342     1.0  0.16021  0.78084  0.10424  1.0000
  O   O1172     1.0  0.86871  0.74884  0.75014  1.0000
  H   H2343     1.0  0.85637  0.73695  0.74440  1.0000
  H   H2344     1.0  0.86333  0.75418  0.76929  1.0000
  O   O1173     1.0  0.12925  0.38537  0.68210  1.0000
  H   H2345     1.0  0.13881  0.39710  0.67107  1.0000
  H   H2346     1.0  0.13395  0.38819  0.70227  1.0000
  O   O1174     1.0  0.64979  0.67458  0.54165  1.0000
  H   H2347     1.0  0.63502  0.68306  0.54839  1.0000
  H   H2348     1.0  0.66350  0.68550  0.54579  1.0000
  O   O1175     1.0  0.13003  0.62250  0.30782  1.0000
  H   H2349     1.0  0.11485  0.61320  0.31047  1.0000
  H   H2350     1.0  0.14213  0.61098  0.30048  1.0000
  O   O1176     1.0  0.85373  0.18583  0.51190  1.0000
  H   H2351     1.0  0.84566  0.17643  0.52706  1.0000
  H   H2352     1.0  0.87092  0.18738  0.51837  1.0000
  O   O1177     1.0  0.60216  0.68077  0.50826  1.0000
  H   H2353     1.0  0.59190  0.66695  0.51315  1.0000
  H   H2354     1.0  0.59219  0.68984  0.49440  1.0000
  O   O1178     1.0  0.95180  0.64709  0.23844  1.0000
  H   H2355     1.0  0.94836  0.65924  0.25312  1.0000
  H   H2356     1.0  0.94626  0.65429  0.22026  1.0000
  O   O1179     1.0  0.95130  0.41813  0.85023  1.0000
  H   H2357     1.0  0.94532  0.43267  0.84081  1.0000
  H   H2358     1.0  0.96212  0.42384  0.86575  1.0000
  O   O1180     1.0  0.78958  0.65484  0.45194  1.0000
  H   H2359     1.0  0.78127  0.66623  0.43914  1.0000
  H   H2360     1.0  0.77655  0.64936  0.46509  1.0000
  O   O1181     1.0  0.54974  0.95980  0.27041  1.0000
  H   H2361     1.0  0.54333  0.97611  0.27165  1.0000
  H   H2362     1.0  0.56021  0.95804  0.28757  1.0000
  O   O1182     1.0  0.64989  0.31699  0.19983  1.0000
  H   H2363     1.0  0.66562  0.32030  0.20957  1.0000
  H   H2364     1.0  0.64261  0.33275  0.19648  1.0000
  O   O1183     1.0  0.08089  0.11512  0.61133  1.0000
  H   H2365     1.0  0.09600  0.11591  0.59968  1.0000
  H   H2366     1.0  0.07906  0.13119  0.61936  1.0000
  O   O1184     1.0  0.13808  0.05196  0.14083  1.0000
  H   H2367     1.0  0.15358  0.05006  0.15158  1.0000
  H   H2368     1.0  0.13972  0.06742  0.13115  1.0000
  O   O1185     1.0  0.16174  0.90907  0.61286  1.0000
  H   H2369     1.0  0.15605  0.92483  0.60659  1.0000
  H   H2370     1.0  0.14715  0.90174  0.62175  1.0000
  O   O1186     1.0  0.70099  0.02822  0.19015  1.0000
  H   H2371     1.0  0.70567  0.04066  0.20397  1.0000
  H   H2372     1.0  0.70379  0.03546  0.17115  1.0000
  O   O1187     1.0  0.89535  0.12942  0.21147  1.0000
  H   H2373     1.0  0.91150  0.12152  0.21036  1.0000
  H   H2374     1.0  0.89245  0.13547  0.19189  1.0000
  O   O1188     1.0  0.40062  0.71605  0.89682  1.0000
  H   H2375     1.0  0.38655  0.71823  0.88373  1.0000
  H   H2376     1.0  0.39619  0.72514  0.91414  1.0000
  O   O1189     1.0  0.88541  0.24497  0.80642  1.0000
  H   H2377     1.0  0.89424  0.25788  0.81628  1.0000
  H   H2378     1.0  0.89658  0.23125  0.80776  1.0000
  O   O1190     1.0  0.06260  0.47361  0.83873  1.0000
  H   H2379     1.0  0.07124  0.48806  0.83242  1.0000
  H   H2380     1.0  0.07423  0.46577  0.85190  1.0000
  O   O1191     1.0  0.61593  0.24984  0.04180  1.0000
  H   H2381     1.0  0.61785  0.23271  0.04528  1.0000
  H   H2382     1.0  0.59964  0.25135  0.03267  1.0000
  O   O1192     1.0  0.17036  0.05509  0.18450  1.0000
  H   H2383     1.0  0.17851  0.06808  0.17401  1.0000
  H   H2384     1.0  0.17939  0.04073  0.17864  1.0000
  O   O1193     1.0  0.20443  0.15163  0.65553  1.0000
  H   H2385     1.0  0.20485  0.13528  0.64809  1.0000
  H   H2386     1.0  0.21796  0.15976  0.64546  1.0000
  O   O1194     1.0  0.37207  0.22254  0.22142  1.0000
  H   H2387     1.0  0.35987  0.21854  0.20653  1.0000
  H   H2388     1.0  0.38427  0.23248  0.21140  1.0000
  O   O1195     1.0  0.18344  0.08048  0.49429  1.0000
  H   H2389     1.0  0.19736  0.07892  0.50772  1.0000
  H   H2390     1.0  0.17104  0.08965  0.50503  1.0000
  O   O1196     1.0  0.50038  0.20232  0.33645  1.0000
  H   H2391     1.0  0.48948  0.19277  0.32410  1.0000
  H   H2392     1.0  0.51386  0.19146  0.34166  1.0000
  O   O1197     1.0  0.84382  0.41110  0.61322  1.0000
  H   H2393     1.0  0.85948  0.41911  0.61764  1.0000
  H   H2394     1.0  0.84186  0.41297  0.59229  1.0000
  O   O1198     1.0  0.46671  0.48719  0.02471  1.0000
  H   H2395     1.0  0.45813  0.48491  0.04315  1.0000
  H   H2396     1.0  0.45549  0.48040  0.01025  1.0000
  O   O1199     1.0  0.64918  0.14280  0.09903  1.0000
  H   H2397     1.0  0.63491  0.14928  0.10947  1.0000
  H   H2398     1.0  0.64768  0.12549  0.10126  1.0000
  O   O1200     1.0  0.09029  0.01223  0.72516  1.0000
  H   H2399     1.0  0.07419  0.02023  0.72412  1.0000
  H   H2400     1.0  0.08684  0.99572  0.71954  1.0000
  O   O1201     1.0  0.88457  0.42030  0.02289  1.0000
  H   H2401     1.0  0.89176  0.42799  0.00583  1.0000
  H   H2402     1.0  0.89492  0.40621  0.02610  1.0000
  O   O1202     1.0  0.86885  0.11287  0.99161  1.0000
  H   H2403     1.0  0.87958  0.09952  0.99702  1.0000
  H   H2404     1.0  0.87967  0.12688  0.99237  1.0000
  O   O1203     1.0  0.26849  0.38535  0.14945  1.0000
  H   H2405     1.0  0.26872  0.38914  0.17013  1.0000
  H   H2406     1.0  0.28554  0.38804  0.14303  1.0000
  O   O1204     1.0  0.52556  0.01540  0.53089  1.0000
  H   H2407     1.0  0.54279  0.01972  0.52686  1.0000
  H   H2408     1.0  0.52670  0.00093  0.54268  1.0000
  O   O1205     1.0  0.61484  0.85447  0.37649  1.0000
  H   H2409     1.0  0.62584  0.86259  0.36284  1.0000
  H   H2410     1.0  0.60990  0.83982  0.36648  1.0000
  O   O1206     1.0  0.90972  0.94781  0.51747  1.0000
  H   H2411     1.0  0.90898  0.96523  0.51868  1.0000
  H   H2412     1.0  0.92606  0.94445  0.50923  1.0000
  O   O1207     1.0  0.78476  0.24999  0.25526  1.0000
  H   H2413     1.0  0.79333  0.25838  0.23962  1.0000
  H   H2414     1.0  0.78990  0.23333  0.25315  1.0000
  O   O1208     1.0  0.49133  0.81321  0.64802  1.0000
  H   H2415     1.0  0.49226  0.80036  0.63371  1.0000
  H   H2416     1.0  0.47542  0.81075  0.65772  1.0000
  O   O1209     1.0  0.07888  0.31416  0.95959  1.0000
  H   H2417     1.0  0.09436  0.31162  0.97017  1.0000
  H   H2418     1.0  0.08410  0.31738  0.93969  1.0000
  O   O1210     1.0  0.04314  0.38971  0.75101  1.0000
  H   H2419     1.0  0.04466  0.40631  0.75734  1.0000
  H   H2420     1.0  0.02538  0.38748  0.74769  1.0000
  O   O1211     1.0  0.69601  0.17431  0.42104  1.0000
  H   H2421     1.0  0.68463  0.16249  0.42920  1.0000
  H   H2422     1.0  0.70332  0.16636  0.40423  1.0000
  O   O1212     1.0  0.68684  0.93262  0.85479  1.0000
  H   H2423     1.0  0.70019  0.94444  0.85475  1.0000
  H   H2424     1.0  0.67497  0.93855  0.84049  1.0000
  O   O1213     1.0  0.09014  0.96384  0.81162  1.0000
  H   H2425     1.0  0.07701  0.96362  0.79702  1.0000
  H   H2426     1.0  0.08647  0.97786  0.82351  1.0000
  O   O1214     1.0  0.22568  0.29726  0.49273  1.0000
  H   H2427     1.0  0.22931  0.28573  0.47739  1.0000
  H   H2428     1.0  0.22922  0.31281  0.48402  1.0000
  O   O1215     1.0  0.37424  0.37294  0.60314  1.0000
  H   H2429     1.0  0.37203  0.38210  0.62099  1.0000
  H   H2430     1.0  0.35843  0.37455  0.59296  1.0000
  O   O1216     1.0  0.87076  0.22080  0.88875  1.0000
  H   H2431     1.0  0.87547  0.23731  0.89289  1.0000
  H   H2432     1.0  0.85772  0.22212  0.87412  1.0000
  O   O1217     1.0  0.40537  0.93433  0.28664  1.0000
  H   H2433     1.0  0.39727  0.93191  0.26792  1.0000
  H   H2434     1.0  0.39231  0.94067  0.29916  1.0000
  O   O1218     1.0  0.63776  0.92995  0.59183  1.0000
  H   H2435     1.0  0.64002  0.92722  0.57108  1.0000
  H   H2436     1.0  0.63625  0.94730  0.59366  1.0000
  O   O1219     1.0  0.72861  0.80793  0.52752  1.0000
  H   H2437     1.0  0.73583  0.80976  0.54682  1.0000
  H   H2438     1.0  0.73430  0.82198  0.51683  1.0000
  O   O1220     1.0  0.30738  0.87566  0.60069  1.0000
  H   H2439     1.0  0.31905  0.87463  0.58452  1.0000
  H   H2440     1.0  0.30162  0.85926  0.60350  1.0000
  O   O1221     1.0  0.09568  0.10939  0.79925  1.0000
  H   H2441     1.0  0.08539  0.12093  0.80966  1.0000
  H   H2442     1.0  0.11265  0.11320  0.80512  1.0000
  O   O1222     1.0  0.19618  0.74295  0.99572  1.0000
  H   H2443     1.0  0.20635  0.73597  0.98036  1.0000
  H   H2444     1.0  0.20579  0.74043  0.01341  1.0000
  O   O1223     1.0  0.28940  0.22900  0.36518  1.0000
  H   H2445     1.0  0.28941  0.23886  0.38266  1.0000
  H   H2446     1.0  0.27195  0.22802  0.35957  1.0000
  O   O1224     1.0  0.98779  0.27600  0.21304  1.0000
  H   H2447     1.0  0.99652  0.27385  0.19467  1.0000
  H   H2448     1.0  0.99976  0.28411  0.22553  1.0000
  O   O1225     1.0  0.06613  0.76348  0.80210  1.0000
  H   H2449     1.0  0.05165  0.75981  0.79014  1.0000
  H   H2450     1.0  0.07459  0.74815  0.80445  1.0000
  O   O1226     1.0  0.68245  0.30580  0.43369  1.0000
  H   H2451     1.0  0.67279  0.29298  0.42477  1.0000
  H   H2452     1.0  0.67711  0.30593  0.45393  1.0000
  O   O1227     1.0  0.36477  0.13146  0.53107  1.0000
  H   H2453     1.0  0.37453  0.11673  0.53118  1.0000
  H   H2454     1.0  0.34755  0.12605  0.52998  1.0000
  O   O1228     1.0  0.66706  0.52717  0.10709  1.0000
  H   H2455     1.0  0.65269  0.53729  0.10309  1.0000
  H   H2456     1.0  0.66041  0.51092  0.10744  1.0000
  O   O1229     1.0  0.27377  0.80719  0.14228  1.0000
  H   H2457     1.0  0.27866  0.79073  0.14650  1.0000
  H   H2458     1.0  0.25897  0.80565  0.13019  1.0000
  O   O1230     1.0  0.49556  0.60020  0.62468  1.0000
  H   H2459     1.0  0.49530  0.58578  0.61272  1.0000
  H   H2460     1.0  0.50795  0.61047  0.61553  1.0000
  O   O1231     1.0  0.00400  0.39038  0.46170  1.0000
  H   H2461     1.0  0.02028  0.38576  0.45428  1.0000
  H   H2462     1.0  0.99408  0.39345  0.44437  1.0000
  O   O1232     1.0  0.68611  0.22813  0.22634  1.0000
  H   H2463     1.0  0.69053  0.21689  0.21097  1.0000
  H   H2464     1.0  0.69676  0.24199  0.22294  1.0000
  O   O1233     1.0  0.15661  0.01709  0.79615  1.0000
  H   H2465     1.0  0.16826  0.03038  0.79425  1.0000
  H   H2466     1.0  0.14296  0.02118  0.78313  1.0000
  O   O1234     1.0  0.99898  0.96604  0.18597  1.0000
  H   H2467     1.0  0.98852  0.95240  0.19106  1.0000
  H   H2468     1.0  0.99406  0.97860  0.19952  1.0000
  O   O1235     1.0  0.38381  0.40808  0.94497  1.0000
  H   H2469     1.0  0.39894  0.41685  0.94979  1.0000
  H   H2470     1.0  0.38916  0.39602  0.93098  1.0000
  O   O1236     1.0  0.88665  0.09658  0.76626  1.0000
  H   H2471     1.0  0.89024  0.10767  0.78208  1.0000
  H   H2472     1.0  0.89935  0.08420  0.76797  1.0000
  O   O1237     1.0  0.38915  0.78814  0.67950  1.0000
  H   H2473     1.0  0.39565  0.78534  0.66003  1.0000
  H   H2474     1.0  0.37971  0.77369  0.68403  1.0000
  O   O1238     1.0  0.61298  0.79420  0.59607  1.0000
  H   H2475     1.0  0.60844  0.78511  0.61337  1.0000
  H   H2476     1.0  0.60794  0.78402  0.57990  1.0000
  O   O1239     1.0  0.02244  0.78988  0.41919  1.0000
  H   H2477     1.0  0.01582  0.79563  0.40075  1.0000
  H   H2478     1.0  0.03787  0.79879  0.42183  1.0000
  O   O1240     1.0  0.90808  0.04813  0.06056  1.0000
  H   H2479     1.0  0.92208  0.05819  0.05484  1.0000
  H   H2480     1.0  0.89458  0.05301  0.04772  1.0000
  O   O1241     1.0  0.95626  0.89382  0.73902  1.0000
  H   H2481     1.0  0.95915  0.90420  0.72231  1.0000
  H   H2482     1.0  0.97278  0.89087  0.74695  1.0000
  O   O1242     1.0  0.31861  0.04218  0.82015  1.0000
  H   H2483     1.0  0.31906  0.05358  0.80411  1.0000
  H   H2484     1.0  0.32870  0.04959  0.83528  1.0000
  O   O1243     1.0  0.65883  0.36342  0.92869  1.0000
  H   H2485     1.0  0.67496  0.37135  0.92751  1.0000
  H   H2486     1.0  0.65723  0.35493  0.91028  1.0000
  O   O1244     1.0  0.38187  0.67689  0.45749  1.0000
  H   H2487     1.0  0.37485  0.67709  0.47702  1.0000
  H   H2488     1.0  0.36884  0.68364  0.44524  1.0000
  O   O1245     1.0  0.54423  0.78337  0.25875  1.0000
  H   H2489     1.0  0.52866  0.77580  0.25296  1.0000
  H   H2490     1.0  0.54366  0.79920  0.24981  1.0000
  O   O1246     1.0  0.99401  0.77758  0.48173  1.0000
  H   H2491     1.0  0.99672  0.76061  0.47779  1.0000
  H   H2492     1.0  0.00612  0.78151  0.49675  1.0000
  O   O1247     1.0  0.24982  0.94328  0.14623  1.0000
  H   H2493     1.0  0.26720  0.94182  0.14047  1.0000
  H   H2494     1.0  0.24319  0.92709  0.14447  1.0000
  O   O1248     1.0  0.13412  0.62102  0.39106  1.0000
  H   H2495     1.0  0.14961  0.63008  0.39064  1.0000
  H   H2496     1.0  0.13197  0.61662  0.41140  1.0000
  O   O1249     1.0  0.54194  0.08311  0.41601  1.0000
  H   H2497     1.0  0.54071  0.06582  0.41341  1.0000
  H   H2498     1.0  0.52872  0.08965  0.40387  1.0000
  O   O1250     1.0  0.93611  0.59778  0.22361  1.0000
  H   H2499     1.0  0.92612  0.60575  0.20880  1.0000
  H   H2500     1.0  0.94847  0.58874  0.21268  1.0000
  O   O1251     1.0  0.14148  0.49011  0.65040  1.0000
  H   H2501     1.0  0.12796  0.49706  0.66172  1.0000
  H   H2502     1.0  0.15649  0.49735  0.65841  1.0000
  O   O1252     1.0  0.28596  0.16950  0.22866  1.0000
  H   H2503     1.0  0.29139  0.17393  0.20918  1.0000
  H   H2504     1.0  0.28283  0.15232  0.22750  1.0000
  O   O1253     1.0  0.59321  0.66668  0.89792  1.0000
  H   H2505     1.0  0.60775  0.66821  0.88540  1.0000
  H   H2506     1.0  0.59008  0.64949  0.89885  1.0000
  O   O1254     1.0  0.04318  0.87823  0.62137  1.0000
  H   H2507     1.0  0.02851  0.88848  0.62211  1.0000
  H   H2508     1.0  0.03910  0.86605  0.60696  1.0000
  O   O1255     1.0  0.99539  0.24328  0.48432  1.0000
  H   H2509     1.0  0.01292  0.23907  0.48601  1.0000
  H   H2510     1.0  0.99237  0.25420  0.50047  1.0000
  O   O1256     1.0  0.90018  0.27813  0.41491  1.0000
  H   H2511     1.0  0.90828  0.27414  0.43324  1.0000
  H   H2512     1.0  0.90850  0.29270  0.40843  1.0000
  O   O1257     1.0  0.11728  0.44702  0.93336  1.0000
  H   H2513     1.0  0.12778  0.43943  0.94797  1.0000
  H   H2514     1.0  0.12017  0.43774  0.91574  1.0000
  O   O1258     1.0  0.63211  0.93042  0.33002  1.0000
  H   H2515     1.0  0.61433  0.93366  0.32882  1.0000
  H   H2516     1.0  0.63487  0.92598  0.35025  1.0000
  O   O1259     1.0  0.46107  0.53896  0.38868  1.0000
  H   H2517     1.0  0.46441  0.53957  0.40948  1.0000
  H   H2518     1.0  0.46274  0.55551  0.38219  1.0000
  O   O1260     1.0  0.23985  0.80987  0.57213  1.0000
  H   H2519     1.0  0.22322  0.81652  0.57457  1.0000
  H   H2520     1.0  0.24927  0.82259  0.56265  1.0000
  O   O1261     1.0  0.52409  0.20147  0.22459  1.0000
  H   H2521     1.0  0.51211  0.20268  0.24042  1.0000
  H   H2522     1.0  0.52996  0.18495  0.22541  1.0000
  O   O1262     1.0  0.72412  0.31269  0.35900  1.0000
  H   H2523     1.0  0.73295  0.31458  0.34064  1.0000
  H   H2524     1.0  0.73652  0.31632  0.37381  1.0000
  O   O1263     1.0  0.54840  0.36610  0.35243  1.0000
  H   H2525     1.0  0.53233  0.36831  0.36186  1.0000
  H   H2526     1.0  0.54478  0.35623  0.33548  1.0000
  O   O1264     1.0  0.22382  0.08830  0.56725  1.0000
  H   H2527     1.0  0.22084  0.07118  0.56966  1.0000
  H   H2528     1.0  0.23629  0.08929  0.55192  1.0000
  O   O1265     1.0  0.94345  0.80504  0.01597  1.0000
  H   H2529     1.0  0.95536  0.80812  0.03150  1.0000
  H   H2530     1.0  0.93175  0.79360  0.02431  1.0000
  O   O1266     1.0  0.28409  0.33636  0.01324  1.0000
  H   H2531     1.0  0.26959  0.32619  0.01011  1.0000
  H   H2532     1.0  0.28057  0.34474  0.03137  1.0000
  O   O1267     1.0  0.84837  0.78398  0.98706  1.0000
  H   H2533     1.0  0.86636  0.78199  0.98589  1.0000
  H   H2534     1.0  0.84607  0.79854  0.99846  1.0000
  O   O1268     1.0  0.53683  0.49783  0.67932  1.0000
  H   H2535     1.0  0.54931  0.49199  0.66568  1.0000
  H   H2536     1.0  0.54150  0.49069  0.69787  1.0000
  O   O1269     1.0  0.59423  0.72130  0.81082  1.0000
  H   H2537     1.0  0.61200  0.72460  0.80972  1.0000
  H   H2538     1.0  0.58712  0.73562  0.81966  1.0000
  O   O1270     1.0  0.20018  0.08094  0.76979  1.0000
  H   H2539     1.0  0.21076  0.06775  0.77613  1.0000
  H   H2540     1.0  0.19342  0.08756  0.78773  1.0000
  O   O1271     1.0  0.54826  0.43429  0.01426  1.0000
  H   H2541     1.0  0.54036  0.42391  0.02858  1.0000
  H   H2542     1.0  0.53687  0.44778  0.01220  1.0000
  O   O1272     1.0  0.09436  0.75552  0.15690  1.0000
  H   H2543     1.0  0.08122  0.76684  0.16186  1.0000
  H   H2544     1.0  0.09030  0.74111  0.16789  1.0000
  O   O1273     1.0  0.20629  0.08324  0.96100  1.0000
  H   H2545     1.0  0.21317  0.08551  0.98040  1.0000
  H   H2546     1.0  0.18977  0.07660  0.96434  1.0000
  O   O1274     1.0  0.60220  0.78067  0.25194  1.0000
  H   H2547     1.0  0.61858  0.78683  0.24676  1.0000
  H   H2548     1.0  0.59232  0.78255  0.23433  1.0000
  O   O1275     1.0  0.34426  0.04397  0.99072  1.0000
  H   H2549     1.0  0.36229  0.04516  0.98909  1.0000
  H   H2550     1.0  0.33972  0.05643  0.00458  1.0000
  O   O1276     1.0  0.40779  0.07801  0.63160  1.0000
  H   H2551     1.0  0.41799  0.09236  0.63362  1.0000
  H   H2552     1.0  0.39166  0.08256  0.63954  1.0000
  O   O1277     1.0  0.87133  0.48100  0.51005  1.0000
  H   H2553     1.0  0.87597  0.46674  0.52101  1.0000
  H   H2554     1.0  0.85321  0.48122  0.51067  1.0000
  O   O1278     1.0  0.88615  0.52688  0.92429  1.0000
  H   H2555     1.0  0.88692  0.53045  0.90358  1.0000
  H   H2556     1.0  0.87957  0.54145  0.93309  1.0000
  O   O1279     1.0  0.03037  0.95836  0.83142  1.0000
  H   H2557     1.0  0.04053  0.94404  0.83388  1.0000
  H   H2558     1.0  0.02872  0.96017  0.81045  1.0000
  O   O1280     1.0  0.36412  0.12429  0.90848  1.0000
  H   H2559     1.0  0.37890  0.13379  0.90425  1.0000
  H   H2560     1.0  0.36706  0.10904  0.89875  1.0000
  O   O1281     1.0  0.32494  0.34880  0.78808  1.0000
  H   H2561     1.0  0.34099  0.34119  0.79151  1.0000
  H   H2562     1.0  0.31279  0.33620  0.79180  1.0000
  O   O1282     1.0  0.20711  0.97128  0.69419  1.0000
  H   H2563     1.0  0.20321  0.95773  0.70676  1.0000
  H   H2564     1.0  0.19257  0.97292  0.68169  1.0000
  O   O1283     1.0  0.96168  0.45743  0.29900  1.0000
  H   H2565     1.0  0.97876  0.46306  0.29707  1.0000
  H   H2566     1.0  0.95153  0.47102  0.29299  1.0000
  O   O1284     1.0  0.35483  0.94149  0.71802  1.0000
  H   H2567     1.0  0.34942  0.93617  0.73718  1.0000
  H   H2568     1.0  0.35960  0.92680  0.70800  1.0000
  O   O1285     1.0  0.19172  0.86676  0.17227  1.0000
  H   H2569     1.0  0.17904  0.85670  0.18123  1.0000
  H   H2570     1.0  0.19515  0.87911  0.18671  1.0000
  O   O1286     1.0  0.82705  0.52170  0.89894  1.0000
  H   H2571     1.0  0.82361  0.53872  0.90151  1.0000
  H   H2572     1.0  0.84371  0.52119  0.89059  1.0000
  O   O1287     1.0  0.16391  0.31629  0.38517  1.0000
  H   H2573     1.0  0.15084  0.31083  0.39825  1.0000
  H   H2574     1.0  0.16714  0.33277  0.39109  1.0000
  O   O1288     1.0  0.03279  0.37673  0.14365  1.0000
  H   H2575     1.0  0.02638  0.36713  0.15968  1.0000
  H   H2576     1.0  0.02169  0.37318  0.12746  1.0000
  O   O1289     1.0  0.78984  0.10585  0.29876  1.0000
  H   H2577     1.0  0.80344  0.11733  0.29725  1.0000
  H   H2578     1.0  0.77512  0.11484  0.29292  1.0000
  O   O1290     1.0  0.58412  0.20143  0.97380  1.0000
  H   H2579     1.0  0.57889  0.20089  0.99407  1.0000
  H   H2580     1.0  0.58513  0.21847  0.96927  1.0000
  O   O1291     1.0  0.72449  0.99308  0.07044  1.0000
  H   H2581     1.0  0.70771  0.99161  0.06260  1.0000
  H   H2582     1.0  0.72627  0.01007  0.07492  1.0000
  O   O1292     1.0  0.26442  0.85326  0.03211  1.0000
  H   H2583     1.0  0.25918  0.83703  0.03700  1.0000
  H   H2584     1.0  0.25619  0.86338  0.04644  1.0000
  O   O1293     1.0  0.10134  0.54214  0.77560  1.0000
  H   H2585     1.0  0.09251  0.55405  0.78716  1.0000
  H   H2586     1.0  0.08987  0.52865  0.77432  1.0000
  O   O1294     1.0  0.91104  0.79961  0.69672  1.0000
  H   H2587     1.0  0.92811  0.79659  0.70282  1.0000
  H   H2588     1.0  0.91156  0.81547  0.68786  1.0000
  O   O1295     1.0  0.54693  0.24073  0.62178  1.0000
  H   H2589     1.0  0.53763  0.22598  0.61853  1.0000
  H   H2590     1.0  0.53703  0.24961  0.63588  1.0000
  O   O1296     1.0  0.87518  0.38161  0.27013  1.0000
  H   H2591     1.0  0.86745  0.37338  0.25378  1.0000
  H   H2592     1.0  0.87721  0.36922  0.28486  1.0000
  O   O1297     1.0  0.19861  0.59067  0.25170  1.0000
  H   H2593     1.0  0.20875  0.57758  0.25921  1.0000
  H   H2594     1.0  0.19506  0.60058  0.26864  1.0000
  O   O1298     1.0  0.62908  0.96811  0.76621  1.0000
  H   H2595     1.0  0.64679  0.96466  0.76445  1.0000
  H   H2596     1.0  0.62089  0.95441  0.75720  1.0000
  O   O1299     1.0  0.48544  0.20923  0.62723  1.0000
  H   H2597     1.0  0.50243  0.20766  0.62011  1.0000
  H   H2598     1.0  0.47668  0.21769  0.61178  1.0000
  O   O1300     1.0  0.39630  0.04078  0.99110  1.0000
  H   H2599     1.0  0.39902  0.02486  0.98298  1.0000
  H   H2600     1.0  0.40481  0.05157  0.97775  1.0000
  O   O1301     1.0  0.18624  0.38549  0.97268  1.0000
  H   H2601     1.0  0.19072  0.36961  0.97978  1.0000
  H   H2602     1.0  0.19339  0.38626  0.95324  1.0000
  O   O1302     1.0  0.16191  0.77602  0.75587  1.0000
  H   H2603     1.0  0.17172  0.77094  0.77258  1.0000
  H   H2604     1.0  0.14473  0.77300  0.76156  1.0000
  O   O1303     1.0  0.34156  0.92624  0.86028  1.0000
  H   H2605     1.0  0.34887  0.93994  0.87026  1.0000
  H   H2606     1.0  0.35171  0.91264  0.86630  1.0000
  O   O1304     1.0  0.97976  0.15361  0.82648  1.0000
  H   H2607     1.0  0.99313  0.14472  0.83589  1.0000
  H   H2608     1.0  0.98605  0.16995  0.82503  1.0000
  O   O1305     1.0  0.39695  0.56523  0.18484  1.0000
  H   H2609     1.0  0.37903  0.56620  0.18185  1.0000
  H   H2610     1.0  0.40339  0.55874  0.16668  1.0000
  O   O1306     1.0  0.07025  0.19054  0.74788  1.0000
  H   H2611     1.0  0.05754  0.20299  0.74769  1.0000
  H   H2612     1.0  0.06358  0.17794  0.73544  1.0000
  O   O1307     1.0  0.30502  0.45314  0.74020  1.0000
  H   H2613     1.0  0.30447  0.47059  0.74069  1.0000
  H   H2614     1.0  0.32216  0.44916  0.74516  1.0000
  O   O1308     1.0  0.19127  0.85064  0.25859  1.0000
  H   H2615     1.0  0.20694  0.85906  0.26164  1.0000
  H   H2616     1.0  0.18628  0.85501  0.23893  1.0000
  O   O1309     1.0  0.90403  0.84719  0.62436  1.0000
  H   H2617     1.0  0.92001  0.85427  0.62954  1.0000
  H   H2618     1.0  0.89176  0.85725  0.63407  1.0000
  O   O1310     1.0  0.91704  0.88692  0.51604  1.0000
  H   H2619     1.0  0.93425  0.88991  0.51045  1.0000
  H   H2620     1.0  0.91821  0.87588  0.53240  1.0000
  O   O1311     1.0  0.05287  0.07097  0.57198  1.0000
  H   H2621     1.0  0.03608  0.06802  0.57913  1.0000
  H   H2622     1.0  0.05096  0.07238  0.55099  1.0000
  O   O1312     1.0  0.41549  0.51151  0.71971  1.0000
  H   H2623     1.0  0.42043  0.50400  0.73793  1.0000
  H   H2624     1.0  0.40537  0.52518  0.72557  1.0000
  O   O1313     1.0  0.24676  0.89854  0.09350  1.0000
  H   H2625     1.0  0.26050  0.89771  0.10729  1.0000
  H   H2626     1.0  0.23493  0.88658  0.10036  1.0000
  O   O1314     1.0  0.92568  0.50746  0.86411  1.0000
  H   H2627     1.0  0.94336  0.50743  0.86877  1.0000
  H   H2628     1.0  0.91817  0.49709  0.87872  1.0000
  O   O1315     1.0  0.32863  0.01261  0.76758  1.0000
  H   H2629     1.0  0.32539  0.00743  0.74771  1.0000
  H   H2630     1.0  0.33773  0.02762  0.76546  1.0000
  O   O1316     1.0  0.05517  0.60690  0.05540  1.0000
  H   H2631     1.0  0.06091  0.59525  0.06968  1.0000
  H   H2632     1.0  0.05778  0.62240  0.06468  1.0000
  O   O1317     1.0  0.54958  0.59985  0.70059  1.0000
  H   H2633     1.0  0.54984  0.60819  0.71920  1.0000
  H   H2634     1.0  0.56449  0.60539  0.69060  1.0000
  O   O1318     1.0  0.44479  0.71176  0.50338  1.0000
  H   H2635     1.0  0.46044  0.72034  0.50088  1.0000
  H   H2636     1.0  0.43867  0.71696  0.52230  1.0000
  O   O1319     1.0  0.61657  0.35493  0.99987  1.0000
  H   H2637     1.0  0.60707  0.34044  0.99578  1.0000
  H   H2638     1.0  0.63225  0.34914  0.00787  1.0000
  O   O1320     1.0  0.91844  0.25830  0.86924  1.0000
  H   H2639     1.0  0.91697  0.24503  0.85557  1.0000
  H   H2640     1.0  0.92460  0.27162  0.85757  1.0000
  O   O1321     1.0  0.51274  0.85570  0.50827  1.0000
  H   H2641     1.0  0.52890  0.85054  0.51554  1.0000
  H   H2642     1.0  0.50087  0.84967  0.52252  1.0000
  O   O1322     1.0  0.40657  0.92085  0.72766  1.0000
  H   H2643     1.0  0.41939  0.91928  0.74251  1.0000
  H   H2644     1.0  0.39114  0.91679  0.73764  1.0000
  O   O1323     1.0  0.08735  0.09193  0.08710  1.0000
  H   H2645     1.0  0.09002  0.07554  0.08049  1.0000
  H   H2646     1.0  0.08768  0.10151  0.06939  1.0000
  O   O1324     1.0  0.46747  0.54443  0.27566  1.0000
  H   H2647     1.0  0.48384  0.54321  0.28466  1.0000
  H   H2648     1.0  0.46858  0.53434  0.25842  1.0000
  O   O1325     1.0  0.40990  0.19370  0.26375  1.0000
  H   H2649     1.0  0.40153  0.19992  0.28095  1.0000
  H   H2650     1.0  0.42311  0.20523  0.25985  1.0000
  O   O1326     1.0  0.53905  0.03610  0.59308  1.0000
  H   H2651     1.0  0.55530  0.03777  0.58390  1.0000
  H   H2652     1.0  0.54275  0.03123  0.61296  1.0000
  O   O1327     1.0  0.53660  0.61262  0.46622  1.0000
  H   H2653     1.0  0.54569  0.62753  0.46927  1.0000
  H   H2654     1.0  0.52947  0.60888  0.48516  1.0000
  O   O1328     1.0  0.73544  0.17019  0.18534  1.0000
  H   H2655     1.0  0.74327  0.15737  0.17425  1.0000
  H   H2656     1.0  0.74481  0.17081  0.20346  1.0000
  O   O1329     1.0  0.71045  0.67669  0.46535  1.0000
  H   H2657     1.0  0.69772  0.66785  0.47596  1.0000
  H   H2658     1.0  0.71708  0.66514  0.45148  1.0000
  O   O1330     1.0  0.05658  0.77252  0.36941  1.0000
  H   H2659     1.0  0.06622  0.77002  0.35173  1.0000
  H   H2660     1.0  0.05848  0.78954  0.37364  1.0000
  O   O1331     1.0  0.27527  0.82030  0.74695  1.0000
  H   H2661     1.0  0.27337  0.81411  0.76663  1.0000
  H   H2662     1.0  0.28713  0.83341  0.74886  1.0000
  O   O1332     1.0  0.11112  0.86091  0.84119  1.0000
  H   H2663     1.0  0.11682  0.86889  0.85882  1.0000
  H   H2664     1.0  0.09354  0.85773  0.84468  1.0000
  O   O1333     1.0  0.52880  0.67953  0.06459  1.0000
  H   H2665     1.0  0.52473  0.69540  0.05711  1.0000
  H   H2666     1.0  0.52383  0.68005  0.08495  1.0000
  O   O1334     1.0  0.03539  0.61479  0.99246  1.0000
  H   H2667     1.0  0.03861  0.62840  0.97973  1.0000
  H   H2668     1.0  0.02890  0.60241  0.97959  1.0000
  O   O1335     1.0  0.83843  0.46456  0.57966  1.0000
  H   H2669     1.0  0.83547  0.46875  0.55940  1.0000
  H   H2670     1.0  0.85360  0.45501  0.57929  1.0000
  O   O1336     1.0  0.43673  0.91411  0.39476  1.0000
  H   H2671     1.0  0.42709  0.90021  0.40090  1.0000
  H   H2672     1.0  0.43108  0.91731  0.37502  1.0000
  O   O1337     1.0  0.17811  0.42789  0.08753  1.0000
  H   H2673     1.0  0.18589  0.42313  0.10576  1.0000
  H   H2674     1.0  0.18504  0.44366  0.08337  1.0000
  O   O1338     1.0  0.51632  0.49037  0.87709  1.0000
  H   H2675     1.0  0.51578  0.48610  0.85657  1.0000
  H   H2676     1.0  0.50245  0.50140  0.87970  1.0000
  O   O1339     1.0  0.95606  0.13191  0.67121  1.0000
  H   H2677     1.0  0.94505  0.14398  0.67951  1.0000
  H   H2678     1.0  0.94714  0.12596  0.65424  1.0000
  O   O1340     1.0  0.96216  0.89130  0.05344  1.0000
  H   H2679     1.0  0.95455  0.89383  0.03446  1.0000
  H   H2680     1.0  0.96172  0.90701  0.06269  1.0000
  O   O1341     1.0  0.05144  0.29519  0.48775  1.0000
  H   H2681     1.0  0.03707  0.30572  0.48962  1.0000
  H   H2682     1.0  0.04440  0.27957  0.48304  1.0000
  O   O1342     1.0  0.21249  0.83638  0.68125  1.0000
  H   H2683     1.0  0.22072  0.84242  0.66387  1.0000
  H   H2684     1.0  0.20252  0.82292  0.67441  1.0000
  O   O1343     1.0  0.25145  0.62032  0.77266  1.0000
  H   H2685     1.0  0.26745  0.62486  0.78097  1.0000
  H   H2686     1.0  0.25221  0.60291  0.77114  1.0000
  O   O1344     1.0  0.42197  0.74675  0.16003  1.0000
  H   H2687     1.0  0.41352  0.76183  0.16408  1.0000
  H   H2688     1.0  0.43952  0.75101  0.15891  1.0000
  O   O1345     1.0  0.21716  0.27582  0.87068  1.0000
  H   H2689     1.0  0.22705  0.27148  0.85373  1.0000
  H   H2690     1.0  0.20841  0.29036  0.86487  1.0000
  O   O1346     1.0  0.40763  0.63411  0.47786  1.0000
  H   H2691     1.0  0.40723  0.61696  0.47389  1.0000
  H   H2692     1.0  0.40240  0.63551  0.49807  1.0000
  O   O1347     1.0  0.25647  0.90417  0.31784  1.0000
  H   H2693     1.0  0.24453  0.91531  0.32631  1.0000
  H   H2694     1.0  0.26692  0.89929  0.33411  1.0000
  O   O1348     1.0  0.98447  0.35902  0.32264  1.0000
  H   H2695     1.0  0.98834  0.34304  0.31537  1.0000
  H   H2696     1.0  0.97564  0.36675  0.30670  1.0000
  O   O1349     1.0  0.73988  0.87298  0.28110  1.0000
  H   H2697     1.0  0.75722  0.87793  0.27951  1.0000
  H   H2698     1.0  0.73100  0.88758  0.28635  1.0000
  O   O1350     1.0  0.02666  0.77899  0.31110  1.0000
  H   H2699     1.0  0.01990  0.77034  0.29448  1.0000
  H   H2700     1.0  0.03960  0.76850  0.31873  1.0000
  O   O1351     1.0  0.68399  0.59299  0.37185  1.0000
  H   H2701     1.0  0.68960  0.57649  0.37416  1.0000
  H   H2702     1.0  0.69163  0.60157  0.38800  1.0000
  O   O1352     1.0  0.45182  0.74987  0.04593  1.0000
  H   H2703     1.0  0.44287  0.75960  0.06008  1.0000
  H   H2704     1.0  0.43909  0.74470  0.03222  1.0000
  O   O1353     1.0  0.12906  0.81507  0.17331  1.0000
  H   H2705     1.0  0.13950  0.82921  0.17580  1.0000
  H   H2706     1.0  0.12042  0.81779  0.15498  1.0000
  O   O1354     1.0  0.94819  0.55456  0.72935  1.0000
  H   H2707     1.0  0.93570  0.54382  0.73748  1.0000
  H   H2708     1.0  0.96349  0.55041  0.73954  1.0000
  O   O1355     1.0  0.26865  0.19291  0.00758  1.0000
  H   H2709     1.0  0.25639  0.19816  0.02183  1.0000
  H   H2710     1.0  0.27599  0.17856  0.01609  1.0000
  O   O1356     1.0  0.24055  0.48304  0.10127  1.0000
  H   H2711     1.0  0.24665  0.49796  0.09287  1.0000
  H   H2712     1.0  0.25092  0.47064  0.09258  1.0000
  O   O1357     1.0  0.74449  0.61936  0.81365  1.0000
  H   H2713     1.0  0.73265  0.62255  0.79808  1.0000
  H   H2714     1.0  0.73452  0.61217  0.82905  1.0000
  O   O1358     1.0  0.66979  0.07122  0.37011  1.0000
  H   H2715     1.0  0.68434  0.06642  0.38132  1.0000
  H   H2716     1.0  0.65582  0.06376  0.38013  1.0000
  O   O1359     1.0  0.99816  0.17708  0.74647  1.0000
  H   H2717     1.0  0.99794  0.18306  0.72657  1.0000
  H   H2718     1.0  0.00500  0.19026  0.75784  1.0000
  O   O1360     1.0  0.63727  0.07348  0.13360  1.0000
  H   H2719     1.0  0.64764  0.08420  0.12207  1.0000
  H   H2720     1.0  0.64890  0.06531  0.14647  1.0000
  O   O1361     1.0  0.29443  0.37069  0.73899  1.0000
  H   H2721     1.0  0.29223  0.37993  0.72120  1.0000
  H   H2722     1.0  0.30029  0.35507  0.73240  1.0000
  O   O1362     1.0  0.70060  0.83899  0.57101  1.0000
  H   H2723     1.0  0.70960  0.85015  0.58346  1.0000
  H   H2724     1.0  0.70288  0.82342  0.58024  1.0000
  O   O1363     1.0  0.65115  0.15775  0.62353  1.0000
  H   H2725     1.0  0.66926  0.15764  0.62245  1.0000
  H   H2726     1.0  0.64751  0.16188  0.64366  1.0000
  O   O1364     1.0  0.96552  0.86301  0.85002  1.0000
  H   H2727     1.0  0.97517  0.85288  0.86308  1.0000
  H   H2728     1.0  0.97522  0.87770  0.84838  1.0000
  O   O1365     1.0  0.24676  0.07493  0.92661  1.0000
  H   H2729     1.0  0.24162  0.05896  0.92045  1.0000
  H   H2730     1.0  0.25977  0.07943  0.91291  1.0000
  O   O1366     1.0  0.21492  0.15281  0.45330  1.0000
  H   H2731     1.0  0.23042  0.14391  0.45542  1.0000
  H   H2732     1.0  0.21644  0.16607  0.46697  1.0000
  O   O1367     1.0  0.67608  0.41407  0.80705  1.0000
  H   H2733     1.0  0.67610  0.41319  0.78590  1.0000
  H   H2734     1.0  0.67134  0.43056  0.81135  1.0000
  O   O1368     1.0  0.22041  0.54709  0.76946  1.0000
  H   H2735     1.0  0.23765  0.54850  0.77579  1.0000
  H   H2736     1.0  0.21066  0.55027  0.78690  1.0000
  O   O1369     1.0  0.79961  0.13022  0.41974  1.0000
  H   H2737     1.0  0.80568  0.13698  0.43795  1.0000
  H   H2738     1.0  0.78857  0.11726  0.42566  1.0000
  O   O1370     1.0  0.28270  0.95530  0.20023  1.0000
  H   H2739     1.0  0.29750  0.96483  0.19618  1.0000
  H   H2740     1.0  0.28709  0.93915  0.19399  1.0000
  O   O1371     1.0  0.96640  0.60763  0.31108  1.0000
  H   H2741     1.0  0.97065  0.59455  0.32421  1.0000
  H   H2742     1.0  0.96780  0.62202  0.32297  1.0000
  O   O1372     1.0  0.14006  0.27990  0.71214  1.0000
  H   H2743     1.0  0.15151  0.27255  0.72594  1.0000
  H   H2744     1.0  0.14958  0.29292  0.70342  1.0000
  O   O1373     1.0  0.04793  0.80635  0.98143  1.0000
  H   H2745     1.0  0.04996  0.82074  0.96965  1.0000
  H   H2746     1.0  0.04676  0.79335  0.96736  1.0000
  O   O1374     1.0  0.39467  0.39811  0.43722  1.0000
  H   H2747     1.0  0.38544  0.41309  0.43568  1.0000
  H   H2748     1.0  0.39308  0.39076  0.41810  1.0000
  O   O1375     1.0  0.04193  0.34229  0.04089  1.0000
  H   H2749     1.0  0.03652  0.35689  0.05064  1.0000
  H   H2750     1.0  0.04170  0.33009  0.05605  1.0000
  O   O1376     1.0  0.64204  0.53522  0.83038  1.0000
  H   H2751     1.0  0.64250  0.54624  0.84681  1.0000
  H   H2752     1.0  0.64027  0.54555  0.81342  1.0000
  O   O1377     1.0  0.35920  0.68390  0.99257  1.0000
  H   H2753     1.0  0.35297  0.68883  0.97360  1.0000
  H   H2754     1.0  0.35973  0.66646  0.99160  1.0000
  O   O1378     1.0  0.16332  0.22052  0.82057  1.0000
  H   H2755     1.0  0.17443  0.23411  0.81758  1.0000
  H   H2756     1.0  0.16372  0.21772  0.84147  1.0000
  O   O1379     1.0  0.64044  0.05764  0.28069  1.0000
  H   H2757     1.0  0.62828  0.06691  0.29166  1.0000
  H   H2758     1.0  0.64744  0.06903  0.26687  1.0000
  O   O1380     1.0  0.95467  0.12892  0.99168  1.0000
  H   H2759     1.0  0.94072  0.12211  0.98097  1.0000
  H   H2760     1.0  0.96910  0.12586  0.97941  1.0000
  O   O1381     1.0  0.28426  0.14753  0.47673  1.0000
  H   H2761     1.0  0.26711  0.14544  0.47032  1.0000
  H   H2762     1.0  0.29289  0.13335  0.46956  1.0000
  O   O1382     1.0  0.99355  0.51129  0.06965  1.0000
  H   H2763     1.0  0.99755  0.49787  0.05693  1.0000
  H   H2764     1.0  0.00834  0.51336  0.08164  1.0000
  O   O1383     1.0  0.44783  0.02513  0.67364  1.0000
  H   H2765     1.0  0.43438  0.01348  0.67520  1.0000
  H   H2766     1.0  0.45331  0.02399  0.65350  1.0000
  O   O1384     1.0  0.21206  0.59458  0.45068  1.0000
  H   H2767     1.0  0.20874  0.57844  0.44358  1.0000
  H   H2768     1.0  0.21613  0.59242  0.47115  1.0000
  O   O1385     1.0  0.74519  0.82652  0.91441  1.0000
  H   H2769     1.0  0.74656  0.81782  0.93270  1.0000
  H   H2770     1.0  0.75938  0.82107  0.90300  1.0000
  O   O1386     1.0  0.73117  0.87046  0.95784  1.0000
  H   H2771     1.0  0.71438  0.86523  0.95298  1.0000
  H   H2772     1.0  0.73672  0.85917  0.97264  1.0000
  O   O1387     1.0  0.92202  0.92880  0.06437  1.0000
  H   H2773     1.0  0.93877  0.93464  0.06831  1.0000
  H   H2774     1.0  0.92151  0.91296  0.07328  1.0000
  O   O1388     1.0  0.18632  0.20220  0.63907  1.0000
  H   H2775     1.0  0.20221  0.19489  0.63401  1.0000
  H   H2776     1.0  0.18356  0.21420  0.62400  1.0000
  O   O1389     1.0  0.27596  0.65617  0.34644  1.0000
  H   H2777     1.0  0.28774  0.66781  0.35421  1.0000
  H   H2778     1.0  0.26685  0.65045  0.36339  1.0000
  O   O1390     1.0  0.47782  0.39689  0.92146  1.0000
  H   H2779     1.0  0.48004  0.40152  0.90120  1.0000
  H   H2780     1.0  0.47958  0.41180  0.93229  1.0000
  O   O1391     1.0  0.57964  0.16513  0.42489  1.0000
  H   H2781     1.0  0.56522  0.15539  0.42993  1.0000
  H   H2782     1.0  0.58573  0.15824  0.40678  1.0000
  O   O1392     1.0  0.09721  0.84941  0.32656  1.0000
  H   H2783     1.0  0.10613  0.85293  0.34450  1.0000
  H   H2784     1.0  0.09099  0.83314  0.32921  1.0000
  O   O1393     1.0  0.20373  0.82608  0.40918  1.0000
  H   H2785     1.0  0.19040  0.83603  0.40139  1.0000
  H   H2786     1.0  0.20304  0.81142  0.39770  1.0000
  O   O1394     1.0  0.95222  0.74062  0.60851  1.0000
  H   H2787     1.0  0.95585  0.75713  0.60307  1.0000
  H   H2788     1.0  0.94101  0.74198  0.62508  1.0000
  O   O1395     1.0  0.01020  0.79559  0.20587  1.0000
  H   H2789     1.0  0.01840  0.79047  0.18802  1.0000
  H   H2790     1.0  0.02335  0.80314  0.21723  1.0000
  O   O1396     1.0  0.78704  0.71783  0.85514  1.0000
  H   H2791     1.0  0.77289  0.72432  0.84448  1.0000
  H   H2792     1.0  0.79461  0.73174  0.86441  1.0000
  O   O1397     1.0  0.23667  0.16934  0.34801  1.0000
  H   H2793     1.0  0.24398  0.17536  0.36597  1.0000
  H   H2794     1.0  0.23958  0.18205  0.33388  1.0000
  O   O1398     1.0  0.94244  0.51109  0.77719  1.0000
  H   H2795     1.0  0.92739  0.51484  0.76629  1.0000
  H   H2796     1.0  0.94970  0.52667  0.78170  1.0000
  O   O1399     1.0  0.13252  0.36719  0.87045  1.0000
  H   H2797     1.0  0.14403  0.35863  0.85780  1.0000
  H   H2798     1.0  0.12727  0.35528  0.88468  1.0000
  O   O1400     1.0  0.79474  0.51485  0.21295  1.0000
  H   H2799     1.0  0.78201  0.52212  0.20070  1.0000
  H   H2800     1.0  0.80184  0.52824  0.22374  1.0000
  O   O1401     1.0  0.34905  0.88660  0.91854  1.0000
  H   H2801     1.0  0.33160  0.88457  0.92372  1.0000
  H   H2802     1.0  0.35599  0.89620  0.93427  1.0000
  O   O1402     1.0  0.45277  0.31396  0.72302  1.0000
  H   H2803     1.0  0.46972  0.31806  0.72865  1.0000
  H   H2804     1.0  0.44681  0.32800  0.71251  1.0000
  O   O1403     1.0  0.14390  0.97796  0.17913  1.0000
  H   H2805     1.0  0.15150  0.97856  0.15992  1.0000
  H   H2806     1.0  0.13062  0.96617  0.17727  1.0000
  O   O1404     1.0  0.17986  0.57453  0.94994  1.0000
  H   H2807     1.0  0.18900  0.57256  0.93181  1.0000
  H   H2808     1.0  0.18929  0.58651  0.96072  1.0000
  O   O1405     1.0  0.62334  0.63429  0.06527  1.0000
  H   H2809     1.0  0.63021  0.61964  0.07356  1.0000
  H   H2810     1.0  0.61324  0.62884  0.04897  1.0000
  O   O1406     1.0  0.95062  0.80604  0.20735  1.0000
  H   H2811     1.0  0.95428  0.81705  0.19147  1.0000
  H   H2812     1.0  0.94261  0.81597  0.22204  1.0000
  O   O1407     1.0  0.58595  0.90054  0.21527  1.0000
  H   H2813     1.0  0.60301  0.90180  0.22227  1.0000
  H   H2814     1.0  0.57790  0.88962  0.22888  1.0000
  O   O1408     1.0  0.51256  0.56067  0.10710  1.0000
  H   H2815     1.0  0.52542  0.57254  0.11106  1.0000
  H   H2816     1.0  0.49920  0.56973  0.09793  1.0000
  O   O1409     1.0  0.99598  0.64129  0.66665  1.0000
  H   H2817     1.0  0.99350  0.63013  0.65062  1.0000
  H   H2818     1.0  0.01390  0.64134  0.66984  1.0000
  O   O1410     1.0  0.95228  0.47429  0.82141  1.0000
  H   H2819     1.0  0.96846  0.46787  0.82696  1.0000
  H   H2820     1.0  0.94248  0.47375  0.83921  1.0000
  O   O1411     1.0  0.89114  0.62538  0.63718  1.0000
  H   H2821     1.0  0.87399  0.62215  0.64281  1.0000
  H   H2822     1.0  0.89874  0.63222  0.65453  1.0000
  O   O1412     1.0  0.47912  0.16594  0.58625  1.0000
  H   H2823     1.0  0.46819  0.15358  0.57844  1.0000
  H   H2824     1.0  0.48261  0.17635  0.56974  1.0000
  O   O1413     1.0  0.99100  0.92516  0.27435  1.0000
  H   H2825     1.0  0.00578  0.93508  0.27197  1.0000
  H   H2826     1.0  0.98405  0.92388  0.25484  1.0000
  O   O1414     1.0  0.33564  0.09559  0.70600  1.0000
  H   H2827     1.0  0.34355  0.11103  0.70952  1.0000
  H   H2828     1.0  0.31824  0.09812  0.71108  1.0000
  O   O1415     1.0  0.94312  0.22070  0.00099  1.0000
  H   H2829     1.0  0.95360  0.23092  0.01303  1.0000
  H   H2830     1.0  0.93545  0.23163  0.98710  1.0000
  O   O1416     1.0  0.03937  0.50514  0.57345  1.0000
  H   H2831     1.0  0.03720  0.52200  0.57835  1.0000
  H   H2832     1.0  0.02670  0.50198  0.55881  1.0000
  O   O1417     1.0  0.40469  0.48850  0.56732  1.0000
  H   H2833     1.0  0.40488  0.50494  0.56018  1.0000
  H   H2834     1.0  0.41501  0.48888  0.58473  1.0000
  O   O1418     1.0  0.53848  0.58053  0.75904  1.0000
  H   H2835     1.0  0.53005  0.57857  0.77764  1.0000
  H   H2836     1.0  0.53078  0.59465  0.75041  1.0000
  O   O1419     1.0  0.39472  0.48407  0.66593  1.0000
  H   H2837     1.0  0.37744  0.48159  0.67160  1.0000
  H   H2838     1.0  0.39869  0.47029  0.65375  1.0000
  O   O1420     1.0  0.70147  0.04668  0.28941  1.0000
  H   H2839     1.0  0.71685  0.03849  0.29464  1.0000
  H   H2840     1.0  0.70516  0.05441  0.27092  1.0000
  O   O1421     1.0  0.19703  0.07154  0.10569  1.0000
  H   H2841     1.0  0.20146  0.07569  0.12559  1.0000
  H   H2842     1.0  0.17890  0.07177  0.10548  1.0000
  O   O1422     1.0  0.49042  0.83175  0.55484  1.0000
  H   H2843     1.0  0.47888  0.84270  0.56434  1.0000
  H   H2844     1.0  0.50676  0.83658  0.56190  1.0000
  O   O1423     1.0  0.27095  0.27661  0.65851  1.0000
  H   H2845     1.0  0.27129  0.28024  0.63780  1.0000
  H   H2846     1.0  0.27588  0.25983  0.65972  1.0000
  O   O1424     1.0  0.27251  0.35494  0.86141  1.0000
  H   H2847     1.0  0.28627  0.34866  0.84989  1.0000
  H   H2848     1.0  0.27758  0.35234  0.88150  1.0000
  O   O1425     1.0  0.94285  0.91534  0.62963  1.0000
  H   H2849     1.0  0.94436  0.90734  0.61089  1.0000
  H   H2850     1.0  0.93166  0.90514  0.64080  1.0000
  O   O1426     1.0  0.16722  0.55351  0.69983  1.0000
  H   H2851     1.0  0.15219  0.56273  0.69593  1.0000
  H   H2852     1.0  0.16179  0.53685  0.69930  1.0000
  O   O1427     1.0  0.60104  0.01845  0.14652  1.0000
  H   H2853     1.0  0.58979  0.00523  0.14219  1.0000
  H   H2854     1.0  0.61491  0.01100  0.15673  1.0000
  O   O1428     1.0  0.82996  0.93001  0.23731  1.0000
  H   H2855     1.0  0.83749  0.94585  0.23879  1.0000
  H   H2856     1.0  0.82417  0.92649  0.25693  1.0000
  O   O1429     1.0  0.79221  0.95839  0.61182  1.0000
  H   H2857     1.0  0.80785  0.95721  0.60121  1.0000
  H   H2858     1.0  0.79697  0.95711  0.63220  1.0000
  O   O1430     1.0  0.98008  0.25320  0.12017  1.0000
  H   H2859     1.0  0.99502  0.26048  0.11204  1.0000
  H   H2860     1.0  0.97125  0.26647  0.12929  1.0000
  O   O1431     1.0  0.19756  0.71703  0.19837  1.0000
  H   H2861     1.0  0.20387  0.70207  0.19029  1.0000
  H   H2862     1.0  0.19488  0.72729  0.18151  1.0000
  O   O1432     1.0  0.61018  0.05215  0.68012  1.0000
  H   H2863     1.0  0.60416  0.03606  0.67577  1.0000
  H   H2864     1.0  0.60060  0.06258  0.66735  1.0000
  O   O1433     1.0  0.10093  0.97822  0.38706  1.0000
  H   H2865     1.0  0.09832  0.99529  0.38379  1.0000
  H   H2866     1.0  0.09569  0.97063  0.36900  1.0000
  O   O1434     1.0  0.84732  0.49013  0.18470  1.0000
  H   H2867     1.0  0.84104  0.50567  0.17838  1.0000
  H   H2868     1.0  0.84177  0.47898  0.16975  1.0000
  O   O1435     1.0  0.00624  0.17495  0.40263  1.0000
  H   H2869     1.0  0.99362  0.17182  0.41736  1.0000
  H   H2870     1.0  0.02142  0.16800  0.41056  1.0000
  O   O1436     1.0  0.14306  0.98015  0.03472  1.0000
  H   H2871     1.0  0.16052  0.98041  0.02900  1.0000
  H   H2872     1.0  0.13686  0.99601  0.02961  1.0000
  O   O1437     1.0  0.49324  0.99894  0.66336  1.0000
  H   H2873     1.0  0.50073  0.00715  0.64684  1.0000
  H   H2874     1.0  0.48196  0.98729  0.65467  1.0000
  O   O1438     1.0  0.83990  0.18773  0.97020  1.0000
  H   H2875     1.0  0.82579  0.19496  0.98021  1.0000
  H   H2876     1.0  0.84808  0.17803  0.98500  1.0000
  O   O1439     1.0  0.92115  0.09925  0.95235  1.0000
  H   H2877     1.0  0.91257  0.08392  0.95396  1.0000
  H   H2878     1.0  0.93816  0.09583  0.95843  1.0000
  O   O1440     1.0  0.71115  0.19121  0.26378  1.0000
  H   H2879     1.0  0.72770  0.19720  0.26849  1.0000
  H   H2880     1.0  0.71412  0.17798  0.25039  1.0000
  O   O1441     1.0  0.33864  0.37339  0.49785  1.0000
  H   H2881     1.0  0.33125  0.35835  0.50431  1.0000
  H   H2882     1.0  0.32724  0.38571  0.50479  1.0000
  O   O1442     1.0  0.49346  0.59556  0.26485  1.0000
  H   H2883     1.0  0.51048  0.59516  0.27212  1.0000
  H   H2884     1.0  0.48798  0.57892  0.26554  1.0000
  O   O1443     1.0  0.20878  0.83166  0.34082  1.0000
  H   H2885     1.0  0.19341  0.83053  0.35195  1.0000
  H   H2886     1.0  0.21216  0.84880  0.33965  1.0000
  O   O1444     1.0  0.67484  0.54156  0.41921  1.0000
  H   H2887     1.0  0.67046  0.53440  0.40058  1.0000
  H   H2888     1.0  0.65978  0.54984  0.42540  1.0000
  O   O1445     1.0  0.99983  0.37069  0.38160  1.0000
  H   H2889     1.0  0.99987  0.38802  0.38429  1.0000
  H   H2890     1.0  0.00422  0.36426  0.40061  1.0000
  O   O1446     1.0  0.28642  0.19113  0.76537  1.0000
  H   H2891     1.0  0.28245  0.18420  0.74649  1.0000
  H   H2892     1.0  0.28040  0.20758  0.76418  1.0000
  O   O1447     1.0  0.74521  0.48202  0.54609  1.0000
  H   H2893     1.0  0.75287  0.46625  0.54427  1.0000
  H   H2894     1.0  0.73529  0.48101  0.56378  1.0000
  O   O1448     1.0  0.36115  0.50297  0.71982  1.0000
  H   H2895     1.0  0.35455  0.51857  0.72543  1.0000
  H   H2896     1.0  0.34903  0.49668  0.70604  1.0000
  O   O1449     1.0  0.06652  0.41260  0.42738  1.0000
  H   H2897     1.0  0.07319  0.42688  0.41799  1.0000
  H   H2898     1.0  0.04860  0.41369  0.42441  1.0000
  O   O1450     1.0  0.18750  0.91631  0.23552  1.0000
  H   H2899     1.0  0.20176  0.90582  0.23851  1.0000
  H   H2900     1.0  0.17561  0.90653  0.22480  1.0000
  O   O1451     1.0  0.27054  0.91944  0.78924  1.0000
  H   H2901     1.0  0.27008  0.93641  0.79424  1.0000
  H   H2902     1.0  0.25789  0.91214  0.80156  1.0000
  O   O1452     1.0  0.80155  0.84764  0.86061  1.0000
  H   H2903     1.0  0.81201  0.84425  0.87741  1.0000
  H   H2904     1.0  0.81281  0.85483  0.84648  1.0000
  O   O1453     1.0  0.97923  0.94935  0.00376  1.0000
  H   H2905     1.0  0.98945  0.93549  0.00861  1.0000
  H   H2906     1.0  0.96512  0.94270  0.99319  1.0000
  O   O1454     1.0  0.73035  0.15028  0.30606  1.0000
  H   H2907     1.0  0.73162  0.13723  0.32006  1.0000
  H   H2908     1.0  0.74504  0.14855  0.29382  1.0000
  O   O1455     1.0  0.34669  0.40932  0.03649  1.0000
  H   H2909     1.0  0.33004  0.40783  0.02831  1.0000
  H   H2910     1.0  0.34893  0.39476  0.04791  1.0000
  O   O1456     1.0  0.41097  0.01493  0.57867  1.0000
  H   H2911     1.0  0.42040  0.01127  0.59621  1.0000
  H   H2912     1.0  0.39606  0.00507  0.58016  1.0000
  O   O1457     1.0  0.82068  0.87729  0.24047  1.0000
  H   H2913     1.0  0.81977  0.87002  0.22125  1.0000
  H   H2914     1.0  0.80369  0.88239  0.24458  1.0000
  O   O1458     1.0  0.88626  0.11917  0.33157  1.0000
  H   H2915     1.0  0.88222  0.11165  0.31304  1.0000
  H   H2916     1.0  0.87724  0.10975  0.34595  1.0000
  O   O1459     1.0  0.62320  0.95847  0.00166  1.0000
  H   H2917     1.0  0.61864  0.96525  0.98287  1.0000
  H   H2918     1.0  0.63994  0.95221  0.99878  1.0000
  O   O1460     1.0  0.79263  0.41867  0.43130  1.0000
  H   H2919     1.0  0.78338  0.40740  0.44336  1.0000
  H   H2920     1.0  0.80877  0.41107  0.42844  1.0000
  O   O1461     1.0  0.93712  0.11419  0.14478  1.0000
  H   H2921     1.0  0.92601  0.10352  0.15541  1.0000
  H   H2922     1.0  0.93983  0.10616  0.12624  1.0000
  O   O1462     1.0  0.64406  0.20871  0.57463  1.0000
  H   H2923     1.0  0.62609  0.20718  0.57260  1.0000
  H   H2924     1.0  0.64836  0.22258  0.56278  1.0000
  O   O1463     1.0  0.80779  0.18978  0.05597  1.0000
  H   H2925     1.0  0.82179  0.18435  0.06771  1.0000
  H   H2926     1.0  0.81446  0.19093  0.03632  1.0000
  O   O1464     1.0  0.23509  0.52129  0.20084  1.0000
  H   H2927     1.0  0.24865  0.51032  0.20538  1.0000
  H   H2928     1.0  0.23427  0.52137  0.17969  1.0000
  O   O1465     1.0  0.79674  0.89001  0.64101  1.0000
  H   H2929     1.0  0.81272  0.88268  0.64564  1.0000
  H   H2930     1.0  0.80103  0.90470  0.63071  1.0000
  O   O1466     1.0  0.22626  0.42994  0.75943  1.0000
  H   H2931     1.0  0.21267  0.43204  0.74565  1.0000
  H   H2932     1.0  0.23978  0.43959  0.75156  1.0000
  O   O1467     1.0  0.74142  0.11549  0.52696  1.0000
  H   H2933     1.0  0.74963  0.12337  0.51067  1.0000
  H   H2934     1.0  0.72631  0.12480  0.53010  1.0000
  O   O1468     1.0  0.86451  0.19624  0.02679  1.0000
  H   H2935     1.0  0.85069  0.20301  0.01581  1.0000
  H   H2936     1.0  0.85688  0.18992  0.04441  1.0000
  O   O1469     1.0  0.41395  0.89142  0.46662  1.0000
  H   H2937     1.0  0.40955  0.90786  0.46162  1.0000
  H   H2938     1.0  0.40279  0.88158  0.45496  1.0000
  O   O1470     1.0  0.21490  0.47508  0.78134  1.0000
  H   H2939     1.0  0.23289  0.47288  0.78123  1.0000
  H   H2940     1.0  0.20822  0.45932  0.77659  1.0000
  O   O1471     1.0  0.40012  0.34940  0.84608  1.0000
  H   H2941     1.0  0.39178  0.33666  0.83537  1.0000
  H   H2942     1.0  0.41700  0.34348  0.84897  1.0000
  O   O1472     1.0  0.95659  0.59488  0.61452  1.0000
  H   H2943     1.0  0.95214  0.58797  0.59578  1.0000
  H   H2944     1.0  0.96343  0.61058  0.60979  1.0000
  O   O1473     1.0  0.39164  0.23478  0.81999  1.0000
  H   H2945     1.0  0.38314  0.23555  0.83867  1.0000
  H   H2946     1.0  0.40344  0.22163  0.82208  1.0000
  O   O1474     1.0  0.87032  0.82079  0.55340  1.0000
  H   H2947     1.0  0.85636  0.82681  0.54203  1.0000
  H   H2948     1.0  0.86298  0.80893  0.56636  1.0000
  O   O1475     1.0  0.57989  0.70869  0.06055  1.0000
  H   H2949     1.0  0.59347  0.71895  0.05406  1.0000
  H   H2950     1.0  0.56530  0.71477  0.05036  1.0000
  O   O1476     1.0  0.87808  0.65471  0.38456  1.0000
  H   H2951     1.0  0.86573  0.64247  0.38907  1.0000
  H   H2952     1.0  0.88462  0.65957  0.40341  1.0000
  O   O1477     1.0  0.28859  0.50281  0.55512  1.0000
  H   H2953     1.0  0.30581  0.50780  0.55243  1.0000
  H   H2954     1.0  0.28908  0.48539  0.55373  1.0000
  O   O1478     1.0  0.43178  0.61000  0.27459  1.0000
  H   H2955     1.0  0.42819  0.61126  0.25388  1.0000
  H   H2956     1.0  0.41570  0.61218  0.28401  1.0000
  O   O1479     1.0  0.70790  0.60772  0.49515  1.0000
  H   H2957     1.0  0.70118  0.62294  0.48831  1.0000
  H   H2958     1.0  0.72272  0.60515  0.48336  1.0000
  O   O1480     1.0  0.19077  0.55396  0.19737  1.0000
  H   H2959     1.0  0.20828  0.55809  0.19513  1.0000
  H   H2960     1.0  0.18913  0.53842  0.18787  1.0000
  O   O1481     1.0  0.80902  0.43524  0.32546  1.0000
  H   H2961     1.0  0.82197  0.44614  0.31875  1.0000
  H   H2962     1.0  0.80764  0.43843  0.34622  1.0000
  O   O1482     1.0  0.50625  0.65255  0.28971  1.0000
  H   H2963     1.0  0.51526  0.64728  0.27248  1.0000
  H   H2964     1.0  0.51837  0.65140  0.30540  1.0000
  O   O1483     1.0  0.31768  0.22307  0.23064  1.0000
  H   H2965     1.0  0.32032  0.20912  0.21827  1.0000
  H   H2966     1.0  0.30957  0.23473  0.21803  1.0000
  O   O1484     1.0  0.22666  0.52382  0.59559  1.0000
  H   H2967     1.0  0.21895  0.52063  0.57681  1.0000
  H   H2968     1.0  0.21541  0.51657  0.60969  1.0000
  O   O1485     1.0  0.94916  0.14677  0.46171  1.0000
  H   H2969     1.0  0.95788  0.13145  0.46167  1.0000
  H   H2970     1.0  0.94269  0.14831  0.48141  1.0000
  O   O1486     1.0  0.78531  0.45764  0.57827  1.0000
  H   H2971     1.0  0.78896  0.45026  0.55955  1.0000
  H   H2972     1.0  0.77434  0.47100  0.57362  1.0000
  O   O1487     1.0  0.42121  0.26870  0.30476  1.0000
  H   H2973     1.0  0.42221  0.25130  0.30342  1.0000
  H   H2974     1.0  0.40405  0.27189  0.31041  1.0000
  O   O1488     1.0  0.13176  0.67057  0.36683  1.0000
  H   H2975     1.0  0.12636  0.68719  0.36518  1.0000
  H   H2976     1.0  0.14376  0.67066  0.38270  1.0000
  O   O1489     1.0  0.25132  0.14028  0.72820  1.0000
  H   H2977     1.0  0.26576  0.14081  0.71542  1.0000
  H   H2978     1.0  0.25261  0.15480  0.73987  1.0000
  O   O1490     1.0  0.32154  0.91465  0.20750  1.0000
  H   H2979     1.0  0.31222  0.91377  0.18937  1.0000
  H   H2980     1.0  0.30971  0.90965  0.22236  1.0000
  O   O1491     1.0  0.72822  0.93743  0.93776  1.0000
  H   H2981     1.0  0.73921  0.93925  0.92106  1.0000
  H   H2982     1.0  0.71189  0.94219  0.93059  1.0000
  O   O1492     1.0  0.40008  0.61467  0.41939  1.0000
  H   H2983     1.0  0.40940  0.61755  0.40156  1.0000
  H   H2984     1.0  0.41116  0.60491  0.43128  1.0000
  O   O1493     1.0  0.81581  0.24050  0.54292  1.0000
  H   H2985     1.0  0.79890  0.23799  0.54993  1.0000
  H   H2986     1.0  0.82636  0.23586  0.55920  1.0000
  O   O1494     1.0  0.44701  0.15298  0.25921  1.0000
  H   H2987     1.0  0.42941  0.15578  0.25541  1.0000
  H   H2988     1.0  0.45457  0.16884  0.25818  1.0000
  O   O1495     1.0  0.75873  0.69180  0.47948  1.0000
  H   H2989     1.0  0.77646  0.69184  0.48387  1.0000
  H   H2990     1.0  0.75791  0.69244  0.45834  1.0000
  O   O1496     1.0  0.62265  0.01024  0.29509  1.0000
  H   H2991     1.0  0.60859  0.00104  0.30244  1.0000
  H   H2992     1.0  0.62569  0.02233  0.30997  1.0000
  O   O1497     1.0  0.35081  0.28474  0.27273  1.0000
  H   H2993     1.0  0.36357  0.29708  0.27429  1.0000
  H   H2994     1.0  0.33519  0.29326  0.27575  1.0000
  O   O1498     1.0  0.94428  0.01233  0.70429  1.0000
  H   H2995     1.0  0.94179  0.00525  0.68515  1.0000
  H   H2996     1.0  0.95364  0.02697  0.70055  1.0000
  O   O1499     1.0  0.56650  0.45305  0.10148  1.0000
  H   H2997     1.0  0.57303  0.46867  0.10711  1.0000
  H   H2998     1.0  0.57760  0.44157  0.11079  1.0000
  O   O1500     1.0  0.29832  0.75685  0.38662  1.0000
  H   H2999     1.0  0.29952  0.74023  0.39299  1.0000
  H   H3000     1.0  0.28077  0.75909  0.38205  1.0000
  O   O1501     1.0  0.30295  0.95043  0.89618  1.0000
  H   H3001     1.0  0.31735  0.95994  0.90187  1.0000
  H   H3002     1.0  0.30935  0.93927  0.88170  1.0000
  O   O1502     1.0  0.41079  0.00527  0.24661  1.0000
  H   H3003     1.0  0.39475  0.00610  0.25643  1.0000
  H   H3004     1.0  0.41815  0.02104  0.24959  1.0000
  O   O1503     1.0  0.15589  0.95977  0.79187  1.0000
  H   H3005     1.0  0.15935  0.94719  0.80601  1.0000
  H   H3006     1.0  0.16876  0.95788  0.77713  1.0000
  O   O1504     1.0  0.19943  0.74239  0.29165  1.0000
  H   H3007     1.0  0.21298  0.75315  0.29694  1.0000
  H   H3008     1.0  0.20267  0.72780  0.30268  1.0000
  O   O1505     1.0  0.79617  0.49962  0.65252  1.0000
  H   H3009     1.0  0.78158  0.50907  0.64734  1.0000
  H   H3010     1.0  0.79456  0.49699  0.67337  1.0000
  O   O1506     1.0  0.33372  0.81684  0.02823  1.0000
  H   H3011     1.0  0.33711  0.79972  0.02676  1.0000
  H   H3012     1.0  0.33549  0.82043  0.04885  1.0000
  O   O1507     1.0  0.83961  0.01304  0.92640  1.0000
  H   H3013     1.0  0.85209  0.00287  0.91722  1.0000
  H   H3014     1.0  0.83554  0.02496  0.91167  1.0000
  O   O1508     1.0  0.48746  0.74096  0.91032  1.0000
  H   H3015     1.0  0.50479  0.74526  0.90692  1.0000
  H   H3016     1.0  0.48137  0.73576  0.89139  1.0000
  O   O1509     1.0  0.43595  0.99701  0.31952  1.0000
  H   H3017     1.0  0.44874  0.99065  0.33241  1.0000
  H   H3018     1.0  0.42255  0.00190  0.33248  1.0000
  O   O1510     1.0  0.17845  0.52775  0.24935  1.0000
  H   H3019     1.0  0.16329  0.52216  0.23992  1.0000
  H   H3020     1.0  0.17303  0.53310  0.26849  1.0000
  O   O1511     1.0  0.35363  0.66906  0.65053  1.0000
  H   H3021     1.0  0.36864  0.66021  0.65561  1.0000
  H   H3022     1.0  0.34342  0.65751  0.64002  1.0000
  O   O1512     1.0  0.87673  0.66514  0.83855  1.0000
  H   H3023     1.0  0.88908  0.67190  0.85172  1.0000
  H   H3024     1.0  0.86080  0.67029  0.84652  1.0000
  O   O1513     1.0  0.60601  0.07971  0.34180  1.0000
  H   H3025     1.0  0.61989  0.08612  0.33061  1.0000
  H   H3026     1.0  0.60342  0.06367  0.33396  1.0000
  O   O1514     1.0  0.86884  0.12339  0.90763  1.0000
  H   H3027     1.0  0.86726  0.10908  0.89562  1.0000
  H   H3028     1.0  0.85974  0.13572  0.89704  1.0000
  O   O1515     1.0  0.04766  0.37957  0.56685  1.0000
  H   H3029     1.0  0.06124  0.36897  0.56124  1.0000
  H   H3030     1.0  0.03427  0.36880  0.57263  1.0000
  O   O1516     1.0  0.13125  0.12938  0.09473  1.0000
  H   H3031     1.0  0.11624  0.13911  0.09607  1.0000
  H   H3032     1.0  0.12519  0.11308  0.09198  1.0000
  O   O1517     1.0  0.33237  0.93273  0.37313  1.0000
  H   H3033     1.0  0.32074  0.94176  0.38514  1.0000
  H   H3034     1.0  0.33266  0.94131  0.35468  1.0000
  O   O1518     1.0  0.79310  0.52958  0.06932  1.0000
  H   H3035     1.0  0.81076  0.52684  0.07273  1.0000
  H   H3036     1.0  0.78520  0.52599  0.08788  1.0000
  O   O1519     1.0  0.39087  0.21768  0.06713  1.0000
  H   H3037     1.0  0.37418  0.22400  0.07030  1.0000
  H   H3038     1.0  0.39603  0.22454  0.04861  1.0000
  O   O1520     1.0  0.38107  0.17836  0.45566  1.0000
  H   H3039     1.0  0.38938  0.19388  0.45550  1.0000
  H   H3040     1.0  0.36406  0.18184  0.44968  1.0000
  O   O1521     1.0  0.26183  0.30439  0.92950  1.0000
  H   H3041     1.0  0.26917  0.28963  0.93690  1.0000
  H   H3042     1.0  0.26267  0.30278  0.90844  1.0000
  O   O1522     1.0  0.79244  0.22221  0.64686  1.0000
  H   H3043     1.0  0.80360  0.22983  0.63295  1.0000
  H   H3044     1.0  0.78634  0.23535  0.65886  1.0000
  O   O1523     1.0  0.21877  0.11268  0.28470  1.0000
  H   H3045     1.0  0.20861  0.09841  0.28758  1.0000
  H   H3046     1.0  0.22694  0.11009  0.26606  1.0000
  O   O1524     1.0  0.25740  0.75428  0.10023  1.0000
  H   H3047     1.0  0.27365  0.75228  0.10929  1.0000
  H   H3048     1.0  0.25864  0.76939  0.08970  1.0000
  O   O1525     1.0  0.24385  0.56705  0.30115  1.0000
  H   H3049     1.0  0.24924  0.57743  0.28532  1.0000
  H   H3050     1.0  0.23978  0.55189  0.29175  1.0000
  O   O1526     1.0  0.58919  0.20901  0.45638  1.0000
  H   H3051     1.0  0.58258  0.21084  0.47598  1.0000
  H   H3052     1.0  0.59054  0.22534  0.44902  1.0000
  O   O1527     1.0  0.93832  0.91778  0.92211  1.0000
  H   H3053     1.0  0.93230  0.91874  0.94205  1.0000
  H   H3054     1.0  0.95260  0.90704  0.92311  1.0000
  O   O1528     1.0  0.28042  0.14212  0.79544  1.0000
  H   H3055     1.0  0.27121  0.12863  0.80353  1.0000
  H   H3056     1.0  0.29694  0.13570  0.79148  1.0000
  O   O1529     1.0  0.98655  0.85922  0.21437  1.0000
  H   H3057     1.0  0.97107  0.85987  0.20336  1.0000
  H   H3058     1.0  0.98722  0.84290  0.22188  1.0000
  O   O1530     1.0  0.17675  0.47422  0.00229  1.0000
  H   H3059     1.0  0.16243  0.47966  0.01348  1.0000
  H   H3060     1.0  0.16982  0.46931  0.98365  1.0000
  O   O1531     1.0  0.86325  0.25010  0.05934  1.0000
  H   H3061     1.0  0.87616  0.24470  0.04599  1.0000
  H   H3062     1.0  0.86068  0.23659  0.07242  1.0000
  O   O1532     1.0  0.79890  0.31790  0.36446  1.0000
  H   H3063     1.0  0.79358  0.32039  0.34444  1.0000
  H   H3064     1.0  0.78887  0.30447  0.37126  1.0000
  O   O1533     1.0  0.36273  0.70715  0.04675  1.0000
  H   H3065     1.0  0.37102  0.71396  0.06368  1.0000
  H   H3066     1.0  0.34992  0.71882  0.04177  1.0000
  O   O1534     1.0  0.43414  0.69889  0.69665  1.0000
  H   H3067     1.0  0.44234  0.68343  0.69902  1.0000
  H   H3068     1.0  0.44772  0.71045  0.69584  1.0000
  O   O1535     1.0  0.87858  0.07937  0.70943  1.0000
  H   H3069     1.0  0.86709  0.07610  0.69354  1.0000
  H   H3070     1.0  0.89154  0.06728  0.70738  1.0000
  O   O1536     1.0  0.32534  0.97115  0.04354  1.0000
  H   H3071     1.0  0.30972  0.96332  0.03850  1.0000
  H   H3072     1.0  0.33817  0.96043  0.03613  1.0000
  O   O1537     1.0  0.87515  0.63866  0.51930  1.0000
  H   H3073     1.0  0.87726  0.65597  0.52078  1.0000
  H   H3074     1.0  0.86114  0.63508  0.53202  1.0000
  O   O1538     1.0  0.58632  0.68167  0.69706  1.0000
  H   H3075     1.0  0.59364  0.69415  0.70916  1.0000
  H   H3076     1.0  0.57477  0.69017  0.68441  1.0000
  O   O1539     1.0  0.93482  0.87869  0.98510  1.0000
  H   H3077     1.0  0.95020  0.88652  0.97912  1.0000
  H   H3078     1.0  0.92178  0.89014  0.98019  1.0000
  O   O1540     1.0  0.27555  0.41401  0.97939  1.0000
  H   H3079     1.0  0.26371  0.42137  0.96606  1.0000
  H   H3080     1.0  0.29099  0.42278  0.97621  1.0000
  O   O1541     1.0  0.58782  0.28249  0.83465  1.0000
  H   H3081     1.0  0.57324  0.27469  0.82634  1.0000
  H   H3082     1.0  0.59972  0.28320  0.81870  1.0000
  O   O1542     1.0  0.68551  0.98541  0.26502  1.0000
  H   H3083     1.0  0.70350  0.98744  0.26416  1.0000
  H   H3084     1.0  0.68014  0.99628  0.28038  1.0000
  O   O1543     1.0  0.31120  0.81881  0.49587  1.0000
  H   H3085     1.0  0.31150  0.82904  0.51304  1.0000
  H   H3086     1.0  0.32508  0.80781  0.49862  1.0000
  O   O1544     1.0  0.85101  0.19536  0.43412  1.0000
  H   H3087     1.0  0.85540  0.18168  0.42199  1.0000
  H   H3088     1.0  0.86667  0.20382  0.43709  1.0000
  O   O1545     1.0  0.34525  0.86423  0.41710  1.0000
  H   H3089     1.0  0.34528  0.85431  0.39966  1.0000
  H   H3090     1.0  0.36066  0.86007  0.42705  1.0000
  O   O1546     1.0  0.52925  0.84158  0.67820  1.0000
  H   H3091     1.0  0.52917  0.85802  0.68535  1.0000
  H   H3092     1.0  0.54682  0.83755  0.67636  1.0000
  O   O1547     1.0  0.79017  0.11390  0.35801  1.0000
  H   H3093     1.0  0.78311  0.12667  0.34613  1.0000
  H   H3094     1.0  0.77589  0.10676  0.36776  1.0000
  O   O1548     1.0  0.04607  0.96553  0.11433  1.0000
  H   H3095     1.0  0.06191  0.97298  0.10938  1.0000
  H   H3096     1.0  0.03489  0.97026  0.09868  1.0000
  O   O1549     1.0  0.02672  0.96178  0.43247  1.0000
  H   H3097     1.0  0.01280  0.97231  0.42789  1.0000
  H   H3098     1.0  0.02658  0.94978  0.41709  1.0000
  O   O1550     1.0  0.66723  0.44912  0.96922  1.0000
  H   H3099     1.0  0.66585  0.43649  0.98376  1.0000
  H   H3100     1.0  0.66390  0.44110  0.95081  1.0000
  O   O1551     1.0  0.31062  0.85924  0.32150  1.0000
  H   H3101     1.0  0.29821  0.84675  0.32449  1.0000
  H   H3102     1.0  0.30992  0.86264  0.30074  1.0000
  O   O1552     1.0  0.32741  0.31307  0.04475  1.0000
  H   H3103     1.0  0.32100  0.29784  0.05191  1.0000
  H   H3104     1.0  0.34514  0.31025  0.04188  1.0000
  O   O1553     1.0  0.84172  0.03676  0.40722  1.0000
  H   H3105     1.0  0.83632  0.02551  0.39229  1.0000
  H   H3106     1.0  0.85445  0.04644  0.39775  1.0000
  O   O1554     1.0  0.06520  0.89433  0.68612  1.0000
  H   H3107     1.0  0.08017  0.90404  0.68407  1.0000
  H   H3108     1.0  0.06721  0.88626  0.70476  1.0000
  O   O1555     1.0  0.91642  0.50253  0.69414  1.0000
  H   H3109     1.0  0.92222  0.49010  0.68089  1.0000
  H   H3110     1.0  0.92677  0.50066  0.71138  1.0000
  O   O1556     1.0  0.26002  0.67746  0.48192  1.0000
  H   H3111     1.0  0.26138  0.66016  0.48439  1.0000
  H   H3112     1.0  0.25368  0.68322  0.50049  1.0000
  O   O1557     1.0  0.77410  0.83090  0.73586  1.0000
  H   H3113     1.0  0.78774  0.83877  0.72568  1.0000
  H   H3114     1.0  0.78124  0.81595  0.74297  1.0000
  O   O1558     1.0  0.93680  0.43766  0.02262  1.0000
  H   H3115     1.0  0.94964  0.44811  0.01469  1.0000
  H   H3116     1.0  0.93013  0.42925  0.00577  1.0000
  O   O1559     1.0  0.30986  0.87127  0.81881  1.0000
  H   H3117     1.0  0.30745  0.85429  0.81469  1.0000
  H   H3118     1.0  0.32786  0.87330  0.81946  1.0000
  O   O1560     1.0  0.26119  0.29681  0.87258  1.0000
  H   H3119     1.0  0.25408  0.29924  0.85332  1.0000
  H   H3120     1.0  0.27734  0.28946  0.86892  1.0000
  O   O1561     1.0  0.01165  0.48471  0.97044  1.0000
  H   H3121     1.0  0.01833  0.49661  0.95703  1.0000
  H   H3122     1.0  0.01222  0.49252  0.98938  1.0000
  O   O1562     1.0  0.95228  0.10131  0.09054  1.0000
  H   H3123     1.0  0.93768  0.09130  0.08735  1.0000
  H   H3124     1.0  0.96572  0.08997  0.09416  1.0000
  O   O1563     1.0  0.44206  0.43678  0.07608  1.0000
  H   H3125     1.0  0.45639  0.44571  0.08324  1.0000
  H   H3126     1.0  0.42775  0.44647  0.08165  1.0000
  O   O1564     1.0  0.76329  0.70399  0.36130  1.0000
  H   H3127     1.0  0.75596  0.69327  0.34693  1.0000
  H   H3128     1.0  0.74917  0.71264  0.36946  1.0000
  O   O1565     1.0  0.44023  0.36233  0.49363  1.0000
  H   H3129     1.0  0.43094  0.36380  0.47553  1.0000
  H   H3130     1.0  0.43301  0.37444  0.50635  1.0000
  O   O1566     1.0  0.34902  0.77982  0.72435  1.0000
  H   H3131     1.0  0.35591  0.77558  0.74325  1.0000
  H   H3132     1.0  0.34903  0.76484  0.71345  1.0000
  O   O1567     1.0  0.97989  0.27676  0.31581  1.0000
  H   H3133     1.0  0.96571  0.26950  0.30598  1.0000
  H   H3134     1.0  0.97948  0.29352  0.30985  1.0000
  O   O1568     1.0  0.78952  0.88303  0.90317  1.0000
  H   H3135     1.0  0.80025  0.87698  0.88775  1.0000
  H   H3136     1.0  0.79759  0.87789  0.92109  1.0000
  O   O1569     1.0  0.99587  0.10019  0.01157  1.0000
  H   H3137     1.0  0.00079  0.08338  0.01092  1.0000
  H   H3138     1.0  0.98438  0.10205  0.99535  1.0000
  O   O1570     1.0  0.72070  0.02775  0.64170  1.0000
  H   H3139     1.0  0.70771  0.02590  0.65629  1.0000
  H   H3140     1.0  0.71209  0.02600  0.62318  1.0000
  O   O1571     1.0  0.97590  0.66024  0.38524  1.0000
  H   H3141     1.0  0.97382  0.66663  0.40480  1.0000
  H   H3142     1.0  0.97375  0.64299  0.38747  1.0000
  O   O1572     1.0  0.99992  0.67252  0.97786  1.0000
  H   H3143     1.0  0.98880  0.66149  0.98790  1.0000
  H   H3144     1.0  0.00959  0.66236  0.96485  1.0000
  O   O1573     1.0  0.55734  0.80225  0.45643  1.0000
  H   H3145     1.0  0.56751  0.80450  0.47375  1.0000
  H   H3146     1.0  0.56601  0.78995  0.44532  1.0000
  O   O1574     1.0  0.30239  0.03766  0.25209  1.0000
  H   H3147     1.0  0.30957  0.03563  0.23280  1.0000
  H   H3148     1.0  0.31224  0.02719  0.26454  1.0000
  O   O1575     1.0  0.01368  0.17410  0.88297  1.0000
  H   H3149     1.0  0.02454  0.17971  0.86744  1.0000
  H   H3150     1.0  0.00830  0.15825  0.87667  1.0000
  O   O1576     1.0  0.40130  0.62594  0.96965  1.0000
  H   H3151     1.0  0.38769  0.62777  0.95583  1.0000
  H   H3152     1.0  0.40630  0.64229  0.97426  1.0000
  O   O1577     1.0  0.88097  0.18897  0.57177  1.0000
  H   H3153     1.0  0.89072  0.20239  0.56443  1.0000
  H   H3154     1.0  0.86428  0.19548  0.57434  1.0000
  O   O1578     1.0  0.28707  0.75338  0.90216  1.0000
  H   H3155     1.0  0.30281  0.74473  0.90281  1.0000
  H   H3156     1.0  0.27606  0.74304  0.89093  1.0000
  O   O1579     1.0  0.59176  0.96544  0.23109  1.0000
  H   H3157     1.0  0.60437  0.96728  0.21603  1.0000
  H   H3158     1.0  0.58875  0.98168  0.23804  1.0000
  O   O1580     1.0  0.96438  0.31580  0.24436  1.0000
  H   H3159     1.0  0.96409  0.31085  0.26467  1.0000
  H   H3160     1.0  0.97644  0.32883  0.24373  1.0000
  O   O1581     1.0  0.57985  0.43344  0.62103  1.0000
  H   H3161     1.0  0.59549  0.43412  0.61035  1.0000
  H   H3162     1.0  0.57255  0.44929  0.61845  1.0000
  O   O1582     1.0  0.80393  0.83227  0.63157  1.0000
  H   H3163     1.0  0.81842  0.84127  0.63812  1.0000
  H   H3164     1.0  0.81060  0.82057  0.61791  1.0000
  O   O1583     1.0  0.66679  0.51348  0.29063  1.0000
  H   H3165     1.0  0.67152  0.49683  0.28742  1.0000
  H   H3166     1.0  0.66808  0.52092  0.27152  1.0000
  O   O1584     1.0  0.09861  0.20057  0.55196  1.0000
  H   H3167     1.0  0.10052  0.19067  0.53465  1.0000
  H   H3168     1.0  0.11262  0.21164  0.55126  1.0000
  O   O1585     1.0  0.90100  0.07719  0.23884  1.0000
  H   H3169     1.0  0.90432  0.07251  0.21880  1.0000
  H   H3170     1.0  0.91708  0.08242  0.24628  1.0000
  O   O1586     1.0  0.94697  0.11804  0.54633  1.0000
  H   H3171     1.0  0.93581  0.13150  0.54282  1.0000
  H   H3172     1.0  0.96092  0.12076  0.53321  1.0000
  O   O1587     1.0  0.15680  0.18176  0.28211  1.0000
  H   H3173     1.0  0.15339  0.18053  0.30285  1.0000
  H   H3174     1.0  0.14904  0.19679  0.27625  1.0000
  O   O1588     1.0  0.48973  0.48541  0.26885  1.0000
  H   H3175     1.0  0.49934  0.49607  0.25637  1.0000
  H   H3176     1.0  0.47256  0.49061  0.26635  1.0000
  O   O1589     1.0  0.50069  0.69033  0.33104  1.0000
  H   H3177     1.0  0.50823  0.70620  0.33174  1.0000
  H   H3178     1.0  0.50770  0.68191  0.34769  1.0000
  O   O1590     1.0  0.46496  0.56184  0.89016  1.0000
  H   H3179     1.0  0.46779  0.56440  0.91085  1.0000
  H   H3180     1.0  0.44944  0.57024  0.88610  1.0000
  O   O1591     1.0  0.77633  0.76609  0.41305  1.0000
  H   H3181     1.0  0.78860  0.76640  0.39745  1.0000
  H   H3182     1.0  0.77966  0.78056  0.42425  1.0000
  O   O1592     1.0  0.89117  0.26246  0.11233  1.0000
  H   H3183     1.0  0.88306  0.24683  0.11222  1.0000
  H   H3184     1.0  0.90866  0.25895  0.10875  1.0000
  O   O1593     1.0  0.01623  0.05483  0.51020  1.0000
  H   H3185     1.0  0.00501  0.04477  0.52151  1.0000
  H   H3186     1.0  0.02102  0.06764  0.52347  1.0000
  O   O1594     1.0  0.29994  0.56103  0.40964  1.0000
  H   H3187     1.0  0.30968  0.56806  0.42534  1.0000
  H   H3188     1.0  0.30776  0.56696  0.39194  1.0000
  O   O1595     1.0  0.67378  0.32175  0.30844  1.0000
  H   H3189     1.0  0.67326  0.33749  0.31760  1.0000
  H   H3190     1.0  0.66065  0.31268  0.31807  1.0000
  O   O1596     1.0  0.73578  0.23219  0.75328  1.0000
  H   H3191     1.0  0.75087  0.24102  0.75811  1.0000
  H   H3192     1.0  0.72915  0.24039  0.73625  1.0000
  O   O1597     1.0  0.64764  0.49159  0.70973  1.0000
  H   H3193     1.0  0.65203  0.49525  0.68966  1.0000
  H   H3194     1.0  0.62998  0.48766  0.70900  1.0000
  O   O1598     1.0  0.85806  0.23361  0.75058  1.0000
  H   H3195     1.0  0.85271  0.21939  0.74000  1.0000
  H   H3196     1.0  0.87251  0.23937  0.73985  1.0000
  O   O1599     1.0  0.44246  0.27337  0.97347  1.0000
  H   H3197     1.0  0.45570  0.28025  0.96166  1.0000
  H   H3198     1.0  0.42784  0.28299  0.96888  1.0000
  O   O1600     1.0  0.13491  0.89531  0.75526  1.0000
  H   H3199     1.0  0.15116  0.90206  0.75987  1.0000
  H   H3200     1.0  0.13495  0.89366  0.73418  1.0000
  O   O1601     1.0  0.28388  0.82309  0.20343  1.0000
  H   H3201     1.0  0.29957  0.81436  0.20439  1.0000
  H   H3202     1.0  0.28802  0.83923  0.20995  1.0000
  O   O1602     1.0  0.10056  0.71410  0.84246  1.0000
  H   H3203     1.0  0.10105  0.70807  0.86233  1.0000
  H   H3204     1.0  0.10760  0.73016  0.84373  1.0000
  O   O1603     1.0  0.58137  0.85633  0.43329  1.0000
  H   H3205     1.0  0.57530  0.85480  0.45316  1.0000
  H   H3206     1.0  0.56637  0.85781  0.42154  1.0000
  O   O1604     1.0  0.57155  0.06011  0.46533  1.0000
  H   H3207     1.0  0.55852  0.04816  0.46271  1.0000
  H   H3208     1.0  0.58469  0.05166  0.47572  1.0000
  O   O1605     1.0  0.31295  0.58420  0.48885  1.0000
  H   H3209     1.0  0.32661  0.58442  0.50278  1.0000
  H   H3210     1.0  0.32107  0.58389  0.46992  1.0000
  O   O1606     1.0  0.25768  0.37322  0.94299  1.0000
  H   H3211     1.0  0.24047  0.37417  0.93641  1.0000
  H   H3212     1.0  0.26717  0.36973  0.92545  1.0000
  O   O1607     1.0  0.55236  0.32579  0.67037  1.0000
  H   H3213     1.0  0.55490  0.33453  0.65228  1.0000
  H   H3214     1.0  0.55260  0.30896  0.66468  1.0000
  O   O1608     1.0  0.18926  0.31831  0.32636  1.0000
  H   H3215     1.0  0.17765  0.32751  0.31452  1.0000
  H   H3216     1.0  0.20459  0.31805  0.31505  1.0000
  O   O1609     1.0  0.16121  0.16858  0.41468  1.0000
  H   H3217     1.0  0.15073  0.18139  0.40708  1.0000
  H   H3218     1.0  0.16109  0.15639  0.39951  1.0000
  O   O1610     1.0  0.67212  0.40994  0.66406  1.0000
  H   H3219     1.0  0.65660  0.40320  0.65679  1.0000
  H   H3220     1.0  0.68447  0.39749  0.66051  1.0000
  O   O1611     1.0  0.23186  0.72646  0.57029  1.0000
  H   H3221     1.0  0.24312  0.72378  0.58657  1.0000
  H   H3222     1.0  0.24196  0.72338  0.55310  1.0000
  O   O1612     1.0  0.88017  0.18317  0.26460  1.0000
  H   H3223     1.0  0.87866  0.19892  0.27359  1.0000
  H   H3224     1.0  0.86496  0.18136  0.25327  1.0000
  O   O1613     1.0  0.90949  0.16247  0.03543  1.0000
  H   H3225     1.0  0.90446  0.16047  0.05563  1.0000
  H   H3226     1.0  0.91153  0.14617  0.02818  1.0000
  O   O1614     1.0  0.43007  0.75291  0.92866  1.0000
  H   H3227     1.0  0.43422  0.73675  0.93507  1.0000
  H   H3228     1.0  0.41278  0.75509  0.93447  1.0000
  O   O1615     1.0  0.29642  0.51178  0.08513  1.0000
  H   H3229     1.0  0.28216  0.52238  0.08268  1.0000
  H   H3230     1.0  0.28937  0.49569  0.08479  1.0000
  O   O1616     1.0  0.53292  0.09108  0.88494  1.0000
  H   H3231     1.0  0.54634  0.08284  0.89509  1.0000
  H   H3232     1.0  0.51871  0.08032  0.88666  1.0000
  O   O1617     1.0  0.62751  0.89085  0.42221  1.0000
  H   H3233     1.0  0.62360  0.90374  0.43576  1.0000
  H   H3234     1.0  0.63827  0.89829  0.40774  1.0000
  O   O1618     1.0  0.78009  0.52338  0.86753  1.0000
  H   H3235     1.0  0.78575  0.53872  0.85984  1.0000
  H   H3236     1.0  0.76802  0.51768  0.85332  1.0000
  O   O1619     1.0  0.01774  0.55270  0.22226  1.0000
  H   H3237     1.0  0.00058  0.54758  0.22511  1.0000
  H   H3238     1.0  0.01675  0.56511  0.20741  1.0000
  O   O1620     1.0  0.11457  0.67886  0.90323  1.0000
  H   H3239     1.0  0.09934  0.67744  0.89185  1.0000
  H   H3240     1.0  0.11234  0.69351  0.91448  1.0000
